pglib_opf_case793_goc/pglib_opf_case793_goc_5regions.m
% -------------------------------------------------------------------------
% Partitioned MATPOWER Case File
% Copyright (c) 2025 Milad Hasanzadeh
% Generated on: 2026-06-09
% This file contains partitioned data for 5 regions


% -------------------- mpc_regionR1 --------------------

mpc_regionR1.version = '2';
mpc_regionR1.baseMVA = 100.0000;
mpc_regionR1.bus = [
%	bus_i       type        Pd          Qd          Gs          Bs          area        Vm          Va          baseKV      zone        Vmax        Vmin        
	 1	 1	 0	 0	 0	 0	 1	 0.995	 0	 345	 4	 1.06	 0.93;
	 2	 2	 0	 0	 0	-28.7013868158	 1	 0.995	 0	 765	 4	 1.06	 0.93;
	 3	 1	 165.819	 81.171	 0	 0	 1	 0.995	 0	 345	 4	 1.06	 0.93;
	 4	 1	 0	 0	 0	 0	 1	 0.995	 0	 138	 4	 1.06	 0.93;
	 5	 1	 0	 0	 0	 0	 1	 0.995	 0	 138	 4	 1.06	 0.93;
	 6	 1	 1.458	 2.907	 0	 0	 1	 0.995	 0	 69	 4	 1.06	 0.93;
	 7	 1	 0	 0	 0	 0	 1	 0.995	 0	 69	 4	 1.06	 0.93;
	 8	 1	 0	 0	 0	 0	 1	 0.995	 0	 18	 4	 1.06	 0.93;
	 9	 1	 0	 0	 0	 0	 1	 0.995	 0	 18	 4	 1.06	 0.93;
	 10	 2	 23.161	 6.482	 0	 0	 1	 0.995	 0	 69	 4	 1.06	 0.93;
	 11	 1	 0	 0	 0	 0	 1	 0.995	 0	 18	 4	 1.06	 0.93;
	 12	 1	 94.268	-10.243	 0	 0	 1	 0.995	 0	 138	 4	 1.06	 0.93;
	 13	 1	 107.787	-29.102	 0	 0	 1	 0.995	 0	 138	 4	 1.06	 0.93;
	 14	 1	 0	 0	 0	 0	 1	 0.995	 0	 22	 4	 1.06	 0.93;
	 15	 1	 40.868	 10.919	 0	 0	 1	 0.995	 0	 138	 4	 1.06	 0.93;
	 16	 1	 2.465	 1.89	 0	 0	 1	 0.995	 0	 138	 4	 1.06	 0.93;
	 17	 1	 0	 0	 0	 0	 1	 0.995	 0	 345	 4	 1.06	 0.93;
	 18	 1	 0	 0	 0	 0	 1	 0.995	 0	 69	 4	 1.06	 0.93;
	 19	 1	 0	 0	 0	 0	 1	 0.995	 0	 18	 4	 1.06	 0.93;
	 20	 1	 1.931	 0.678	 0	-2.46770793051e-05	 1	 0.995	 0	 69	 4	 1.06	 0.93;
	 21	 1	 0	 0	 0	 0	 1	 0.995	 0	 18	 4	 1.06	 0.93;
	 22	 1	 101.091	 12.952	 0	 0	 1	 0.995	 0	 138	 4	 1.06	 0.93;
	 23	 1	 9.315	 3.738	 0	 0	 1	 0.995	 0	 69	 4	 1.06	 0.93;
	 24	 1	 6.655	 4.899	 0	 0	 1	 0.995	 0	 69	 4	 1.06	 0.93;
	 25	 1	 0	 0	 0	 0	 1	 0.995	 0	 26.4	 4	 1.06	 0.93;
	 26	 1	 8.34	 2.835	 0	 0	 1	 0.995	 0	 138	 11	 1.06	 0.93;
	 27	 1	 0	 0	 0	 0	 1	 0.995	 0	 138	 11	 1.06	 0.93;
	 28	 1	 0	 0	 0	 0	 1	 0.995	 0	 138	 11	 1.06	 0.93;
	 29	 1	 0	 0	 0	 0	 1	 0.995	 0	 138	 11	 1.06	 0.93;
	 30	 2	 4.396	 2.29	 0	 0.336	 1	 0.995	 0	 138	 11	 1.06	 0.93;
	 31	 1	 0.544	 0.308	 0	 0	 1	 0.995	 0	 138	 11	 1.06	 0.93;
	 32	 1	 0	 0	 0	 0	 1	 0.995	 0	 138	 11	 1.06	 0.93;
	 33	 1	 0	 0	 0	 0	 1	 0.995	 0	 138	 11	 1.06	 0.93;
];

mpc_regionR1.gen = [
%	bus         Pg          Qg          Qmax        Qmin        Vg          mBase       status      Pmax        Pmin        Pc1         Pc2         Qc1min      Qc1max      Qc2min      Qc2max      ramp_agc    ramp_10     ramp_30     ramp_q      apf         
	 2	 259.8835	 0	 160	-160	 0.995	 100	 1	 422.316	 97.451;
	 8	 0	 0	 76.667	-76.667	 0.995	 230	 0	 173.25	 117.8;
	 9	 0	 0	 76.667	-76.667	 0.995	 230	 0	 173.25	 117.8;
	 10	 65.658	 0	 43.92	-43.92	 0.995	 100	 1	 126.316	 5;
	 11	 0	 0	 76.667	-76.667	 0.995	 230	 0	 173.25	 117.8;
	 14	 0	 0	 147.09	-81.3	 0.995	 300	 0	 519.615	 198.808;
	 19	 0	 0	 76.667	-76.667	 0.995	 230	 0	 173.25	 117.8;
	 21	 0	 0	 76.667	-76.667	 0.995	 230	 0	 173.25	 117.8;
	 22	 0	 0	 99.918	-99.918	 0.995	 100	 0	 287.368	 2;
	 25	 0	 0	 302.333	-302.333	 0.995	 907	 0	 254	 2;
	 30	 264.158	 0	 183	-183	 0.995	 100	 1	 526.316	 2;
];

mpc_regionR1.branch = [
%	fbus        tbus        r           x           b           rateA       rateB       rateC       ratio       angle       status      angmin      angmax      
	 1	 3	 0.0001	 0.001	 0.00513	 870	 870	 870	 0	 0	 1	-30	 30;
	 3	 17	 0.0001	 0.001	 0.00513	 870	 870	 870	 0	 0	 1	-30	 30;
	 4	 12	 0.0052	 0.0281	 0.0072	 236	 269	 269	 0	 0	 1	-30	 30;
	 4	 13	 0.0005	 0.084	 0	 260	 312	 312	 0	 0	 1	-30	 30;
	 5	 13	 0.00014	 0.00137	 0.00171	 755	 798	 798	 0	 0	 1	-30	 30;
	 6	 20	 0.0136	 0.0818	 0	 260	 312	 312	 0	 0	 1	-30	 30;
	 6	 24	 0.0221	 0.0761	 0	 260	 312	 312	 0	 0	 1	-30	 30;
	 7	 23	 0.0195	 0.1248	 0	 260	 312	 312	 0	 0	 1	-30	 30;
	 10	 23	 0	 0.0747	 0	 260	 312	 312	 0	 0	 1	-30	 30;
	 10	 23	 0	 0.0747	 0	 400	 500	 500	 0	 0	 1	-30	 30;
	 13	 22	 0.01145	 0.06115	 0.0324	 540	 696	 696	 0	 0	 1	-30	 30;
	 15	 22	 0.007	 0.0575	 0.0158	 319	 410	 410	 0	 0	 1	-30	 30;
	 15	 30	 0.0001	 0.01	 0	 296.38	 355.65	 355.65	 0	 0	 1	-30	 30;
	 16	 22	 0.0011	 0.0102	 0.0034	 276	 362	 362	 0	 0	 1	-30	 30;
	 18	 24	 0.00967	 0.05605	 0	 260	 312	 312	 0	 0	 1	-30	 30;
	 26	 27	 8e-05	 0.00083	 0	 438	 438	 438	 0	 0	 1	-30	 30;
	 26	 33	 0.00463	 0.01446	 0.00163	 312.48	 374.98	 375	 0	 0	 1	-30	 30;
	 27	 29	 0.00413	 0.01289	 0.00144	 300.96	 361.15	 361.15	 0	 0	 1	-30	 30;
	 28	 33	 0.00091	 0.00256	 0.00033	 313.63	 376.35	 376.4	 0	 0	 1	-30	 30;
	 29	 30	 8e-05	 0.00083	 0	 438	 438	 438	 0	 0	 1	-30	 30;
	 31	 32	 8e-05	 0.00083	 0	 438	 438	 438	 0	 0	 1	-30	 30;
	 31	 33	 0	 0.0002	 0	 75	 75	 75	 0	 0	 1	-30	 30;
	 1	 11	 0.00089	 0.01	 0	 165	 198	 198	 1	 0	 1	-30	 30;
	 1	 19	 0.00089	 0.01	 0	 165	 198	 198	 1	 0	 1	-30	 30;
	 1	 21	 0.00089	 0.1	 0	 165	 198	 198	 1	 0	 1	-30	 30;
	 2	 3	 0.00012	 0.00962	 0	 1634	 1805	 1805	 1	 0	 1	-30	 30;
	 3	 5	 0.00025	 0.01514	 0	 706	 716	 716	 1.0124	 0	 1	-30	 30;
	 3	 25	 0.00021	 0.01173	 0	 950	 1140	 1140	 1.0106	 0	 1	-30	 30;
	 13	 7	 0.00021	 0.09197	 0	 260	 312	 312	 0.965	 0	 1	-30	 30;
	 13	 14	 0.0024	 0.0602	 0	 318.36	 382.03	 382.03	 1	 0	 1	-30	 30;
	 13	 14	 0.0024	 0.06081	 0	 318.35	 382.02	 382.02	 1	 0	 1	-30	 30;
	 17	 8	 0.0009	 0.06305	 0	 165	 198	 198	 1	 0	 1	-30	 30;
	 17	 9	 0.00089	 0.06268	 0	 165	 198	 198	 1	 0	 1	-30	 30;
	 22	 20	 0.0053	 0.01221	 0	 260	 312	 312	 1	 0	 1	-30	 30;
];

mpc_regionR1.gencost = [
%	2           startup     shutdown    n           c(n-1)...c0 
	 2	 0	 0	 3	 0	 1.82	 6060;
	 2	 0	 0	 3	 0.2128	 48.21	 3398;
	 2	 0	 0	 3	 0.217	 47	 3495;
	 2	 0	 0	 3	 0.0454	 44.38	 300.4;
	 2	 0	 0	 3	 0.275	 15.67	 5832;
	 2	 0	 0	 3	 0.003248	 0	 13790;
	 2	 0	 0	 3	 0.2824	 13.5	 5978;
	 2	 0	 0	 3	 0.2244	 44.85	-383.5;
	 2	 0	 0	 3	 0.00826	 19.01	 204.6;
	 2	 0	 0	 3	 0.01059	 21.52	 199.4;
	 2	 0	 0	 3	 0	 1.004	 112.6;
];


% -------------------- mpc_regionR2 --------------------

mpc_regionR2.version = '2';
mpc_regionR2.baseMVA = 100.0000;
mpc_regionR2.bus = [
%	bus_i       type        Pd          Qd          Gs          Bs          area        Vm          Va          baseKV      zone        Vmax        Vmin        
	 1	 1	 0	 0	 0	 0	 1	 0.995	 0	 345	 2	 1.06	 0.93;
	 2	 1	 22.758	 40.419	 0	 0	 1	 0.995	 0	 345	 2	 1.06	 0.93;
	 3	 1	 19.34	 25.99	 0	 0	 1	 0.995	 0	 345	 2	 1.06	 0.93;
	 4	 1	 0	 0	 0	-24.285	 1	 0.995	 0	 345	 2	 1.06	 0.93;
	 5	 1	 7.189	 18.487	 0	 0	 1	 0.995	 0	 345	 2	 1.06	 0.93;
	 6	 1	 8.216	 21.568	 0	 4.571	 1	 0.995	 0	 345	 2	 1.06	 0.93;
	 7	 1	 105.543	 20.117	 0	 0	 1	 0.995	 0	 345	 2	 1.06	 0.93;
	 8	 1	 1.156	-45.892	 0	-43.607	 1	 0.995	 0	 345	 2	 1.06	 0.93;
	 9	 1	 0	 0	 0	 0	 1	 0.995	 0	 138	 2	 1.06	 0.93;
	 10	 1	 8.453	 2.218	 0	 0	 1	 0.995	 0	 138	 2	 1.06	 0.93;
	 11	 1	 4.94	 1.777	 0	 0	 1	 0.995	 0	 138	 2	 1.06	 0.93;
	 12	 1	 24.249	 21.671	 0	 0	 1	 0.995	 0	 138	 2	 1.06	 0.93;
	 13	 1	 0	 0	 0	 0	 1	 0.995	 0	 138	 2	 1.06	 0.93;
	 14	 1	 5.608	 2.372	 0	 0	 1	 0.995	 0	 138	 2	 1.06	 0.93;
	 15	 1	 0	 0	 0	 0	 1	 0.995	 0	 138	 2	 1.06	 0.93;
	 16	 1	 9.88	 3.225	 0	 0	 1	 0.995	 0	 138	 2	 1.06	 0.93;
	 17	 1	 0	 0	 0	 0	 1	 0.995	 0	 138	 2	 1.06	 0.93;
	 18	 1	 0	 0	 0	 0	 1	 0.995	 0	 138	 2	 1.06	 0.93;
	 19	 1	 0	 0	 0	 0	 1	 0.995	 0	 138	 2	 1.06	 0.93;
	 20	 1	 0	 0	 0	 0	 1	 0.995	 0	 138	 2	 1.06	 0.93;
	 21	 1	 0	 0	 0	 0	 1	 0.995	 0	 138	 2	 1.06	 0.93;
	 22	 1	 0	 0	 0	 0	 1	 0.995	 0	 138	 2	 1.06	 0.93;
	 23	 1	 4.611	 3.194	 0	 0	 1	 0.995	 0	 138	 2	 1.06	 0.93;
	 24	 1	 0	 0	 0	 0	 1	 0.995	 0	 138	 2	 1.06	 0.93;
	 25	 1	 5.371	 1.859	 0	 0	 1	 0.995	 0	 138	 2	 1.06	 0.93;
	 26	 1	 1.972	 0.616	 0	-1.321	 1	 0.995	 0	 138	 2	 1.06	 0.93;
	 27	 2	 54.434	 25.697	 0	 0	 1	 0.995	 0	 138	 2	 1.06	 0.93;
	 28	 1	 6.162	 2.188	 0	 0	 1	 0.995	 0	 138	 2	 1.06	 0.93;
	 29	 1	 2.855	 0.924	 0	 0	 1	 0.995	 0	 138	 2	 1.06	 0.93;
	 30	 1	 0.442	 0.103	 0	 0	 1	 0.995	 0	 138	 2	 1.06	 0.93;
	 31	 1	 0	 0	 0	 0	 1	 0.995	 0	 138	 2	 1.06	 0.93;
	 32	 1	 8.34	 2.835	 0	 0	 1	 0.995	 0	 138	 2	 1.06	 0.93;
	 33	 1	 0.426	 1.249	 0	 1.197	 1	 0.995	 0	 138	 2	 1.06	 0.93;
	 34	 1	 0	 0	 0	 0	 1	 0.995	 0	 138	 2	 1.06	 0.93;
	 35	 1	 53.244	 16.969	 0	 16.36	 1	 0.995	 0	 138	 2	 1.06	 0.93;
	 36	 1	 6.707	 2.865	 0	 0	 1	 0.995	 0	 138	 2	 1.06	 0.93;
	 37	 1	 9.227	-8.412	 0	-8.091	 1	 0.995	 0	 138	 2	 1.06	 0.93;
	 38	 1	 4.94	 1.551	 0	 0	 1	 0.995	 0	 138	 2	 1.06	 0.93;
	 39	 2	 19.421	 31.027	 0	 0	 1	 0.995	 0	 138	 2	 1.06	 0.93;
	 40	 2	 7.189	 14.379	 0	 0	 1	 0.995	 0	 138	 2	 1.06	 0.93;
	 41	 1	 9.336	 3.143	 0	 0	 1	 0.995	 0	 138	 2	 1.06	 0.93;
	 42	 1	 0	 0	 0	 0	 1	 0.995	 0	 138	 2	 1.06	 0.93;
	 43	 1	 6.553	 2.845	 0	 0	 1	 0.995	 0	 138	 2	 1.06	 0.93;
	 44	 1	 8.535	 3.78	 0	 0	 1	 0.995	 0	 138	 2	 1.06	 0.93;
	 45	 1	 0	 0	 0	 0	 1	 0.995	 0	 138	 2	 1.06	 0.93;
	 46	 1	 10.65	 3.554	 0	 0	 1	 0.995	 0	 138	 2	 1.06	 0.93;
	 47	 1	 3.071	 1.171	 0	 0	 1	 0.995	 0	 138	 2	 1.06	 0.93;
	 48	 1	 6.594	 2.342	 0	 0	 1	 0.995	 0	 138	 2	 1.06	 0.93;
	 49	 1	 0	 0	 0	 0	 1	 0.995	 0	 138	 2	 1.06	 0.93;
	 50	 1	 0	 0	 0	 0	 1	 0.995	 0	 138	 2	 1.06	 0.93;
	 51	 1	 0	 0	 0	 0	 1	 0.995	 0	 138	 2	 1.06	 0.93;
	 52	 1	 3.738	 1.263	 0	 0	 1	 0.995	 0	 138	 2	 1.06	 0.93;
	 53	 1	 4.385	 1.592	 0	 0	 1	 0.995	 0	 138	 2	 1.06	 0.93;
	 54	 1	 0	 0	 0	 0	 1	 0.995	 0	 138	 2	 1.06	 0.93;
	 55	 1	 0	 0	 0	 0	 1	 0.995	 0	 138	 2	 1.06	 0.93;
	 56	 1	 0.77	 0.38	 0	 0	 1	 0.995	 0	 138	 2	 1.06	 0.93;
	 57	 1	 1.315	 0.596	 0	 0	 1	 0.995	 0	 138	 2	 1.06	 0.93;
	 58	 1	 4.724	 1.777	 0	 0	 1	 0.995	 0	 138	 2	 1.06	 0.93;
	 59	 1	 0	 0	 0	 0	 1	 0.995	 0	 138	 2	 1.06	 0.93;
	 60	 1	 4.724	 1.674	 0	 0	 1	 0.995	 0	 138	 2	 1.06	 0.93;
	 61	 1	 12.52	 4.067	 0	 0	 1	 0.995	 0	 138	 2	 1.06	 0.93;
	 62	 1	 18.155	 5.789	 0	 5.562	 1	 0.995	 0	 138	 2	 1.06	 0.93;
	 63	 1	 0	 0	 0	 0	 1	 0.995	 0	 138	 2	 1.06	 0.93;
	 64	 1	 3.954	 1.417	 0	 0	 1	 0.995	 0	 138	 2	 1.06	 0.93;
	 65	 1	 0	 0	 0	 0	 1	 0.995	 0	 138	 2	 1.06	 0.93;
	 66	 1	 0.544	 0.308	 0	 0	 1	 0.995	 0	 138	 2	 1.06	 0.93;
	 67	 1	 0	 0	 0	 0	 1	 0.995	 0	 138	 2	 1.06	 0.93;
	 68	 1	 0	 0	 0	 0	 1	 0.995	 0	 138	 2	 1.06	 0.93;
	 69	 2	 31.5	 5.967	 0	 0	 1	 0.995	 0	 138	 4	 1.06	 0.93;
	 70	 1	 15.039	 2.262	 0	 5.534	 1	 0.995	 0	 138	 4	 1.06	 0.93;
	 71	 1	 0	 0	 0	 0	 1	 0.995	 0	 138	 6	 1.06	 0.93;
	 72	 1	 0.811	 0.246	 0	 0	 1	 0.995	 0	 138	 6	 1.06	 0.93;
	 73	 1	 5.567	 1.695	 0	 0	 1	 0.995	 0	 138	 6	 1.06	 0.93;
	 74	 1	 5.567	 1.695	 0	 0	 1	 0.995	 0	 138	 6	 1.06	 0.93;
	 75	 2	 20.264	 8.227	 0	 0	 1	 0.995	 0	 138	 6	 1.06	 0.93;
	 76	 1	 0	 0	 0	 0	 1	 0.995	 0	 138	 6	 1.06	 0.93;
	 77	 2	 8.237	 2.054	 0	 0	 1	 0.995	 0	 138	 6	 1.06	 0.93;
	 78	 1	 5.977	 2.27	 0	 0	 1	 0.995	 0	 138	 6	 1.06	 0.93;
	 79	 1	 6.183	 2.496	 0	 0	 1	 0.995	 0	 138	 6	 1.06	 0.93;
	 80	 1	 0	 0	 0	-1.903	 1	 0.995	 0	 345	 10	 1.06	 0.93;
	 81	 1	 0	 0	 0	-37.362	 1	 0.995	 0	 345	 10	 1.06	 0.93;
	 82	 1	 124.481	 9.232	 0	 0	 1	 0.995	 0	 345	 10	 1.06	 0.93;
	 83	 1	 0	 0	 0	 0	 1	 0.995	 0	 138	 10	 1.06	 0.93;
	 84	 1	 6.481	 2.26	 0	 0	 1	 0.995	 0	 138	 10	 1.06	 0.93;
	 85	 1	 0	 0	 0	 0	 1	 0.995	 0	 138	 10	 1.06	 0.93;
	 86	 1	 24.249	 21.671	 0	 0	 1	 0.995	 0	 138	 10	 1.06	 0.93;
	 87	 1	 0	 0	 0	 0	 1	 0.995	 0	 138	 10	 1.06	 0.93;
	 88	 1	 5.608	 2.372	 0	 0	 1	 0.995	 0	 138	 10	 1.06	 0.93;
	 89	 1	 0	 0	 0	 0	 1	 0.995	 0	 138	 10	 1.06	 0.93;
	 90	 1	 20.215	-8.126	 0	 0	 1	 0.995	 0	 138	 10	 1.06	 0.93;
	 91	 1	 25.537	-8.014	 0	 0	 1	 0.995	 0	 138	 10	 1.06	 0.93;
	 92	 1	 0	 0	 0	 0	 1	 0.995	 0	 138	 10	 1.06	 0.93;
	 93	 1	 0	 0	 0	 0	 1	 0.995	 0	 138	 10	 1.06	 0.93;
	 94	 1	 5.371	 1.859	 0	 0	 1	 0.995	 0	 138	 10	 1.06	 0.93;
	 95	 1	 1.643	 0.514	 0	 0	 1	 0.995	 0	 138	 10	 1.06	 0.93;
	 96	 1	 1.972	 0.616	 0	 0	 1	 0.995	 0	 138	 10	 1.06	 0.93;
	 97	 1	 2.855	 0.924	 0	 0	 1	 0.995	 0	 138	 10	 1.06	 0.93;
	 98	 1	 8.34	 2.835	 0	 0	 1	 0.995	 0	 138	 10	 1.06	 0.93;
	 99	 1	 0	 0	 0	 0	 1	 0.995	 0	 138	 10	 1.06	 0.93;
	 100	 1	 8.011	 2.629	 0	 0	 1	 0.995	 0	 138	 10	 1.06	 0.93;
	 101	 1	 0	 0	 0	 0	 1	 0.995	 0	 138	 10	 1.06	 0.93;
	 102	 1	 5.053	 2.105	 0	 0	 1	 0.995	 0	 138	 10	 1.06	 0.93;
	 103	 1	 7.189	 14.379	 0	 0	 1	 0.995	 0	 138	 10	 1.06	 0.93;
	 104	 1	 26.457	 7.179	 0	 0	 1	 0.995	 0	 138	 10	 1.06	 0.93;
	 105	 1	 5.957	 1.951	 0	 0	 1	 0.995	 0	 138	 10	 1.06	 0.93;
	 106	 1	 9.336	 3.143	 0	 0	 1	 0.995	 0	 138	 10	 1.06	 0.93;
	 107	 1	 0	 0	 0	 0	 1	 0.995	 0	 138	 10	 1.06	 0.93;
	 108	 1	 6.553	 2.845	 0	 0	 1	 0.995	 0	 138	 10	 1.06	 0.93;
	 109	 1	 8.535	 3.78	 0	 0	 1	 0.995	 0	 138	 10	 1.06	 0.93;
	 110	 1	 38.683	 9.946	 0	 0	 1	 0.995	 0	 138	 10	 1.06	 0.93;
	 111	 1	 5.053	 1.674	 0	 0	 1	 0.995	 0	 138	 10	 1.06	 0.93;
	 112	 1	 0	 0	 0	 0	 1	 0.995	 0	 138	 10	 1.06	 0.93;
	 113	 1	 10.65	 3.554	 0	 0	 1	 0.995	 0	 138	 10	 1.06	 0.93;
	 114	 1	 4.057	 1.387	 0	 0	 1	 0.995	 0	 138	 10	 1.06	 0.93;
	 115	 1	 3.071	 0.822	 0	 0	 1	 0.995	 0	 138	 10	 1.06	 0.93;
	 116	 1	 3.738	 1.263	 0	 0	 1	 0.995	 0	 138	 10	 1.06	 0.93;
	 117	 1	 4.385	 1.592	 0	 0	 1	 0.995	 0	 138	 10	 1.06	 0.93;
	 118	 1	 0	 0	 0	 0	 1	 0.995	 0	 138	 10	 1.06	 0.93;
	 119	 1	 0	 0	 0	 0	 1	 0.995	 0	 138	 10	 1.06	 0.93;
	 120	 1	 12.52	 4.067	 0	 0	 1	 0.995	 0	 138	 10	 1.06	 0.93;
	 121	 1	 0	 0	 0	 0	 1	 0.995	 0	 138	 10	 1.06	 0.93;
	 122	 2	 2.968	 1.068	 0	 0	 1	 0.995	 0	 138	 10	 1.06	 0.93;
	 123	 1	 0	 0	 0	 0	 1	 0.995	 0	 138	 10	 1.06	 0.93;
	 124	 2	 4.396	 2.29	 0	 0	 1	 0.995	 0	 138	 10	 1.06	 0.93;
	 125	 1	 0	 0	 0	 0	 1	 0.995	 0	 138	 10	 1.06	 0.93;
	 126	 1	 0.77	 0.308	 0	 0	 1	 0.995	 0	 138	 10	 1.06	 0.93;
	 127	 1	 0	 0	 0	-1.15	 1	 0.995	 0	 138	 10	 1.06	 0.93;
	 128	 1	 0.544	 0.308	 0	 0	 1	 0.995	 0	 138	 10	 1.06	 0.93;
	 129	 1	 0	 0	 0	 0	 1	 0.995	 0	 138	 10	 1.06	 0.93;
	 130	 1	 0	 0	 0	 0	 1	 0.995	 0	 138	 10	 1.06	 0.93;
	 131	 2	 0	 0	 0	 0	 1	 0.995	 0	 345	 11	 1.06	 0.93;
	 132	 1	 0	 0	 0	-19.101	 1	 0.995	 0	 345	 11	 1.06	 0.93;
	 133	 1	 86.312	 9.232	 0	 0	 1	 0.995	 0	 345	 11	 1.06	 0.93;
	 134	 1	 0	 0	 0	 0	 1	 0.995	 0	 138	 11	 1.06	 0.93;
	 135	 1	 6.481	 2.26	 0	 0	 1	 0.995	 0	 138	 11	 1.06	 0.93;
	 136	 1	 0	 0	 0	 0	 1	 0.995	 0	 138	 11	 1.06	 0.93;
	 137	 1	 24.249	 21.671	 0	 0	 1	 0.995	 0	 138	 11	 1.06	 0.93;
	 138	 1	 0	 0	 0	 0	 1	 0.995	 0	 138	 11	 1.06	 0.93;
	 139	 1	 5.608	 2.372	 0	 0	 1	 0.995	 0	 138	 11	 1.06	 0.93;
	 140	 1	 0	 0	 0	 0	 1	 0.995	 0	 138	 11	 1.06	 0.93;
	 141	 1	 22.628	-8.126	 0	 0	 1	 0.995	 0	 138	 11	 1.06	 0.93;
	 142	 1	 20.663	-8.014	 0	 0	 1	 0.995	 0	 138	 11	 1.06	 0.93;
	 143	 1	 0	 0	 0	 0	 1	 0.995	 0	 138	 11	 1.06	 0.93;
	 144	 1	 0	 0	 0	 0	 1	 0.995	 0	 138	 11	 1.06	 0.93;
	 145	 1	 5.371	 1.859	 0	 0	 1	 0.995	 0	 138	 11	 1.06	 0.93;
	 146	 1	 1.643	 0.514	 0	 0	 1	 0.995	 0	 138	 11	 1.06	 0.93;
	 147	 1	 1.972	 0.616	 0	 0	 1	 0.995	 0	 138	 11	 1.06	 0.93;
	 148	 1	 2.855	 0.924	 0	 0	 1	 0.995	 0	 138	 11	 1.06	 0.93;
	 149	 1	 8.011	 2.629	 0	 0	 1	 0.995	 0	 138	 11	 1.06	 0.93;
	 150	 1	 0	 0	 0	 0	 1	 0.995	 0	 138	 11	 1.06	 0.93;
	 151	 1	 5.053	 2.105	 0	 0	 1	 0.995	 0	 138	 11	 1.06	 0.93;
	 152	 2	 7.189	 14.379	 0	 0	 1	 0.995	 0	 138	 11	 1.06	 0.93;
	 153	 1	 26.457	 7.179	 0	 0	 1	 0.995	 0	 138	 11	 1.06	 0.93;
	 154	 1	 5.957	 1.951	 0	 0	 1	 0.995	 0	 138	 11	 1.06	 0.93;
	 155	 1	 9.336	 3.143	 0	 0	 1	 0.995	 0	 138	 11	 1.06	 0.93;
	 156	 1	 6.553	 2.845	 0	 0	 1	 0.995	 0	 138	 11	 1.06	 0.93;
	 157	 1	 8.535	 3.78	 0	 0	 1	 0.995	 0	 138	 11	 1.06	 0.93;
	 158	 1	 0	 0	 0	 0	 1	 0.995	 0	 138	 11	 1.06	 0.93;
	 159	 1	 10.65	 3.554	 0	 0	 1	 0.995	 0	 138	 11	 1.06	 0.93;
	 160	 1	 4.057	 1.387	 0	 0	 1	 0.995	 0	 138	 11	 1.06	 0.93;
	 161	 1	 3.071	 0.822	 0	 0	 1	 0.995	 0	 138	 11	 1.06	 0.93;
	 162	 1	 3.738	 1.263	 0	 0	 1	 0.995	 0	 138	 11	 1.06	 0.93;
	 163	 1	 4.385	 1.592	 0	 0	 1	 0.995	 0	 138	 11	 1.06	 0.93;
	 164	 1	 0	 0	 0	 0	 1	 0.995	 0	 138	 11	 1.06	 0.93;
	 165	 1	 0	 0	 0	 0	 1	 0.995	 0	 138	 11	 1.06	 0.93;
	 166	 1	 12.52	 4.067	 0	 0	 1	 0.995	 0	 138	 11	 1.06	 0.93;
	 167	 1	 0	 0	 0	 0	 1	 0.995	 0	 138	 11	 1.06	 0.93;
	 168	 2	 2.968	 1.068	 0	 0	 1	 0.995	 0	 138	 11	 1.06	 0.93;
	 169	 1	 0	 0	 0	 0	 1	 0.995	 0	 138	 11	 1.06	 0.93;
	 170	 1	 0.77	 0.308	 0	 0	 1	 0.995	 0	 138	 11	 1.06	 0.93;
	 171	 1	 0	 0	 0	-2.22	 1	 0.995	 0	 138	 11	 1.06	 0.93;
];

mpc_regionR2.gen = [
%	bus         Pg          Qg          Qmax        Qmin        Vg          mBase       status      Pmax        Pmin        Pc1         Pc2         Qc1min      Qc1max      Qc2min      Qc2max      ramp_agc    ramp_10     ramp_30     ramp_q      apf         
	 4	 0	 0	 33.333	-33.333	 0.995	 100	 0	 65.268	 50.268;
	 5	 0	 0	 52.613	-1	 0.995	 163.45	 0	 151.316	 70;
	 6	 0	 0	 52.613	-1	 0.995	 148.19	 0	 151.316	 70;
	 6	 0	 0	 33.333	-33.333	 0.995	 100	 0	 28.104	 13.104;
	 12	 0	 0	 50.325	-40	 0.995	 147.7	 0	 144.737	 32;
	 13	 0	 0	 37.667	-37.667	 0.995	 113	 0	 113	 32;
	 17	 0	 0	 45	-45	 0.995	 135	 0	 135	 35;
	 26	 0	 0	 33.333	-33.333	 0.995	 100	 0	 295	 2.396;
	 27	 28.816	 0	 16.667	-16.667	 0.995	 50	 1	 52.632	 5;
	 39	 0	 0	 43.92	-1	 0.995	 120	 0	 126.316	 70;
	 39	 92.3245	 21.46	 43.92	-1	 0.995	 120	 1	 126.316	 58.333;
	 39	 65.658	 0	 43.92	-43.92	 0.995	 100	 1	 126.316	 5;
	 40	 118.4435	 26.9485	 54.897	-1	 0.995	 144	 1	 157.887	 79;
	 40	 0	 0	 36.667	-36.667	 0.995	 110	 0	 110	 79;
	 69	 46.826	 0	 160	-160	 0.995	 100	 1	 78.395	 15.257;
	 75	 134.684	 0	 92.964	-92.964	 0.995	 2	 1	 267.368	 2;
	 77	 40.0745	 0	 160	-160	 0.995	 100	 1	 70.019	 10.13;
	 80	 0	 0	 33.333	-33.333	 0.995	 100	 0	 28.122	 13.122;
	 81	 0	 0	 33.333	-33.333	 0.995	 100	 0	 257	 4.417;
	 82	 0	 0	 52.613	-1	 0.995	 148.19	 0	 151.316	 70;
	 86	 0	 0	 50.325	-40	 0.995	 147.7	 0	 144.737	 32;
	 87	 0	 0	 37.667	-37.667	 0.995	 113	 0	 113	 32;
	 90	 0	 0	 45	-45	 0.995	 135	 0	 135	 35;
	 103	 0	 0	 54.903	-1.25	 0.995	 144	 0	 157.903	 79;
	 103	 0	 0	 36.667	-36.667	 0.995	 110	 0	 110	 79;
	 122	 27.737	 0	 160	-160	 0.995	 100	 1	 49.192	 6.282;
	 124	 142.0995	 0	 160	-160	 0.995	 100	 1	 283.158	 1.041;
	 127	 0	 0	 33.333	-33.333	 0.995	 100	 0	 263	 4.745;
	 131	 16.6175	 0	 160	-160	 0.995	 100	 1	 29.602	 3.633;
	 132	 0	 0	 33.333	-33.333	 0.995	 100	 0	 260	 4.417;
	 133	 0	 0	 52.613	-1	 0.995	 148.19	 0	 151.316	 70;
	 137	 0	 0	 50.325	-40	 0.995	 147.7	 0	 144.737	 32;
	 138	 0	 0	 37.667	-37.667	 0.995	 113	 0	 113	 32;
	 141	 0	 0	 45	-45	 0.995	 135	 0	 135	 35;
	 152	 184.0605	 35.875	 73	-1.25	 0.995	 144	 1	 268.981	 99.14;
	 152	 0	 0	 36.667	-36.667	 0.995	 110	 0	 110	 79;
	 168	 29.207	 0	 160	-160	 0.995	 100	 1	 49.192	 9.222;
	 171	 0	 0	 33.333	-33.333	 0.995	 100	 0	 294	 4.745;
];

mpc_regionR2.branch = [
%	fbus        tbus        r           x           b           rateA       rateB       rateC       ratio       angle       status      angmin      angmax      
	 1	 2	 2e-05	 0.00021	 0	 876	 876	 876	 0	 0	 1	-30	 30;
	 1	 5	 0.00171	 0.00961	 0.01424	 250	 250	 250	 0	 0	 1	-30	 30;
	 2	 132	 0.0001	 0.01	 0	 121.81	 146.17	 146.2	 0	 0	 1	-30	 30;
	 3	 4	 2e-05	 0.00021	 0	 876	 876	 876	 0	 0	 1	-30	 30;
	 3	 6	 0.00194	 0.01415	 0.0223	 341	 341	 341	 0	 0	 1	-30	 30;
	 3	 81	 0.0001	 0.01	 0	 83.7	 98.6	 98.6	 0	 0	 1	-30	 30;
	 4	 133	 0.0001	 0.01	 0	 122.55	 141.4	 141.4	 0	 0	 1	-30	 30;
	 5	 6	 2e-05	 0.00021	 0	 876	 876	 876	 0	 0	 1	-30	 30;
	 5	 8	 0.00537	 0.04039	 0.06005	 319	 319	 319	 0	 0	 1	-30	 30;
	 6	 82	 0.0001	 0.01	 0	 187.88	 216.79	 216.8	 0	 0	 1	-30	 30;
	 7	 8	 0.00066	 0.00496	 0.00758	 319	 319	 319	 0	 0	 1	-30	 30;
	 7	 80	 0.0001	 0.01	 0	 125.8	 150.96	 151	 0	 0	 1	-30	 30;
	 8	 131	 0.0001	 0.01	 0	 258.73	 298.54	 298.54	 0	 0	 1	-30	 30;
	 9	 40	 0.01248	 0.04595	 0.00524	 75	 75	 75	 0	 0	 1	-30	 30;
	 10	 34	 0.00041	 0.00124	 0.00013	 75	 75	 75	 0	 0	 1	-30	 30;
	 11	 22	 0.00339	 0.01116	 0.00113	 75	 75	 75	 0	 0	 1	-30	 30;
	 11	 38	 0.00132	 0.00231	 0.00023	 47	 47	 47	 0	 0	 1	-30	 30;
	 11	 47	 0.00636	 0.0205	 0.00213	 75	 75	 75	 0	 0	 1	-30	 30;
	 11	 50	 0.00264	 0.00818	 0.00094	 75	 75	 75	 0	 0	 1	-30	 30;
	 11	 59	 0.0081	 0.02298	 0.00239	 63	 63	 63	 0	 0	 1	-30	 30;
	 12	 13	 8e-05	 0.00083	 0	 438	 438	 438	 0	 0	 1	-30	 30;
	 12	 25	 0.00174	 0.00496	 0.00065	 57	 57	 57	 0	 0	 1	-30	 30;
	 12	 41	 0.00455	 0.01405	 0.0016	 75	 75	 75	 0	 0	 1	-30	 30;
	 12	 54	 0.00504	 0.01562	 0.00173	 75	 75	 75	 0	 0	 1	-30	 30;
	 12	 62	 0.00711	 0.02322	 0.00234	 302.57	 349.12	 349.12	 0	 0	 1	-30	 30;
	 13	 35	 0.00496	 0.01628	 0.00164	 123.52	 148.23	 148.23	 0	 0	 1	-30	 30;
	 13	 46	 0.00496	 0.01496	 0.00179	 172.26	 198.76	 198.8	 0	 0	 1	-30	 30;
	 13	 55	 0.00504	 0.01562	 0.00173	 75	 75	 75	 0	 0	 1	-30	 30;
	 14	 15	 0.00124	 0.00421	 0.00059	 70	 70	 70	 0	 0	 1	-30	 30;
	 15	 18	 0.00413	 0.01587	 0.00183	 91.74	 105.86	 105.9	 0	 0	 1	-30	 30;
	 15	 40	 0.00488	 0.01678	 0.00193	 100.5	 115.96	 116	 0	 0	 1	-30	 30;
	 16	 34	 0.00355	 0.01149	 0.00116	 75	 75	 75	 0	 0	 1	-30	 30;
	 16	 65	 0.00182	 0.00587	 0.00587	 114	 114	 114	 0	 0	 1	-30	 30;
	 17	 18	 8e-05	 0.00083	 0	 438	 438	 438	 0	 0	 1	-30	 30;
	 17	 20	 0.00066	 0.00207	 0.00021	 75	 75	 75	 0	 0	 1	-30	 30;
	 17	 29	 0.00066	 0.0024	 0.00031	 80	 80	 80	 0	 0	 1	-30	 30;
	 17	 34	 0.00314	 0.01355	 0.00135	 80	 80	 80	 0	 0	 1	-30	 30;
	 17	 44	 0.00223	 0.00826	 0.00099	 70	 70	 70	 0	 0	 1	-30	 30;
	 18	 19	 0.00066	 0.00215	 0.00022	 75	 75	 75	 0	 0	 1	-30	 30;
	 18	 34	 0.00314	 0.01355	 0.00135	 80	 80	 80	 0	 0	 1	-30	 30;
	 18	 63	 0.00091	 0.00273	 0.00033	 75	 75	 75	 0	 0	 1	-30	 30;
	 21	 34	 0.0014	 0.00455	 0.00046	 75	 75	 75	 0	 0	 1	-30	 30;
	 23	 24	 0.00231	 0.00273	 0.00058	 39	 39	 39	 0	 0	 1	-30	 30;
	 24	 39	 0.00579	 0.01785	 0.00204	 198.93	 238.72	 238.72	 0	 0	 1	-30	 30;
	 26	 45	 0.01198	 0.03702	 0.00418	 156.12	 180.13	 180.13	 0	 0	 1	-30	 30;
	 26	 141	 0.0001	 0.01	 0	 151.01	 174.25	 174.3	 0	 0	 1	-30	 30;
	 28	 34	 0.00372	 0.01207	 0.00122	 75	 75	 75	 0	 0	 1	-30	 30;
	 30	 31	 0.00033	 0.00041	 9e-05	 39	 39	 39	 0	 0	 1	-30	 30;
	 31	 39	 0.0076	 0.02355	 0.00263	 604.64	 697.67	 697.7	 0	 0	 1	-30	 30;
	 32	 33	 8e-05	 0.00083	 0	 438	 438	 438	 0	 0	 1	-30	 30;
	 32	 68	 0.00463	 0.01446	 0.00163	 75	 75	 75	 0	 0	 1	-30	 30;
	 33	 124	 0.0001	 0.01	 0	 83.7	 98.6	 98.6	 0	 0	 1	-30	 30;
	 34	 59	 0.0014	 0.00471	 0.00048	 75	 75	 75	 0	 0	 1	-30	 30;
	 34	 60	 0.00331	 0.01066	 0.0011	 75	 75	 75	 0	 0	 1	-30	 30;
	 36	 37	 0.00438	 0.0086	 0.00086	 47	 47	 47	 0	 0	 1	-30	 30;
	 37	 48	 0.00628	 0.02	 0.00213	 75	 75	 75	 0	 0	 1	-30	 30;
	 37	 69	 0.0001	 0.01	 0	 83.7	 98.6	 98.6	 0	 0	 1	-30	 30;
	 39	 57	 0.00579	 0.01446	 0.00162	 113.45	 130.9	 130.9	 0	 0	 1	-30	 30;
	 40	 43	 0.00769	 0.02711	 0.00317	 85.94	 111.72	 111.72	 0	 0	 1	-30	 30;
	 40	 54	 0.01025	 0.03198	 0.00354	 62	 62	 62	 0	 0	 1	-30	 30;
	 40	 55	 0.01025	 0.03198	 0.00354	 62	 62	 62	 0	 0	 1	-30	 30;
	 41	 42	 8e-05	 0.00083	 0	 438	 438	 438	 0	 0	 1	-30	 30;
	 42	 68	 0.00091	 0.00256	 0.00033	 75	 75	 75	 0	 0	 1	-30	 30;
	 43	 44	 8e-05	 0.00083	 0	 438	 438	 438	 0	 0	 1	-30	 30;
	 45	 46	 8e-05	 0.00083	 0	 438	 438	 438	 0	 0	 1	-30	 30;
	 47	 48	 8e-05	 0.00083	 0	 438	 438	 438	 0	 0	 1	-30	 30;
	 49	 50	 0.00124	 0.00364	 0.00047	 57	 57	 57	 0	 0	 1	-30	 30;
	 50	 65	 0.0038	 0.01215	 0.00125	 75	 75	 75	 0	 0	 1	-30	 30;
	 51	 56	 0.00769	 0.01934	 0.00211	 112.18	 129.43	 129.43	 0	 0	 1	-30	 30;
	 52	 54	 0.00521	 0.00884	 0.00089	 47	 47	 47	 0	 0	 1	-30	 30;
	 53	 55	 0.00521	 0.00884	 0.00089	 47	 47	 47	 0	 0	 1	-30	 30;
	 56	 57	 8e-05	 0.00083	 0	 438	 438	 438	 0	 0	 1	-30	 30;
	 58	 59	 0.0005	 0.0014	 0.00017	 75	 75	 75	 0	 0	 1	-30	 30;
	 61	 62	 0.00074	 0.00231	 0.00026	 75	 75	 75	 0	 0	 1	-30	 30;
	 62	 77	 0.0001	 0.01	 0	 318.91	 367.97	 368	 0	 0	 1	-30	 30;
	 64	 65	 8e-05	 0.0002	 2e-05	 75	 75	 75	 0	 0	 1	-30	 30;
	 66	 67	 8e-05	 0.00083	 0	 438	 438	 438	 0	 0	 1	-30	 30;
	 66	 68	 0	 0.0002	 0	 75	 75	 75	 0	 0	 1	-30	 30;
	 69	 70	 0.0092	 0.0322	 0.0078	 281	 346	 346	 0	 0	 1	-30	 30;
	 70	 168	 0.0001	 0.01	 0	 123.07	 142	 142	 0	 0	 1	-30	 30;
	 71	 76	 0.00037	 0.0012	 0.00013	 70	 70	 70	 0	 0	 1	-30	 30;
	 72	 75	 0.00393	 0.01271	 0.00135	 137	 137	 137	 0	 0	 1	-30	 30;
	 72	 78	 0.00455	 0.01471	 0.00154	 81	 81	 81	 0	 0	 1	-30	 30;
	 73	 74	 8e-05	 0.00083	 0	 438	 438	 438	 0	 0	 1	-30	 30;
	 73	 75	 0.0042	 0.01131	 0.0012	 333.4	 384.69	 384.7	 0	 0	 1	-30	 30;
	 74	 76	 0.01103	 0.02812	 0.00298	 321.51	 370.97	 371	 0	 0	 1	-30	 30;
	 76	 77	 0.0045	 0.0145	 0.00154	 323.16	 372.87	 372.9	 0	 0	 1	-30	 30;
	 78	 79	 8e-05	 0.00083	 0	 438	 438	 438	 0	 0	 1	-30	 30;
	 80	 82	 0.01093	 0.05919	 0.08439	 180	 180	 180	 0	 0	 1	-30	 30;
	 81	 82	 0.00194	 0.01415	 0.0223	 341	 341	 341	 0	 0	 1	-30	 30;
	 83	 103	 0.01248	 0.04595	 0.00524	 75	 75	 75	 0	 0	 1	-30	 30;
	 84	 85	 8e-05	 0.00083	 0	 438	 438	 438	 0	 0	 1	-30	 30;
	 84	 105	 0.00678	 0.02215	 0.00225	 135.75	 156.63	 156.63	 0	 0	 1	-30	 30;
	 85	 121	 0.00413	 0.01355	 0.00138	 127.11	 146.67	 146.7	 0	 0	 1	-30	 30;
	 86	 87	 8e-05	 0.00083	 0	 438	 438	 438	 0	 0	 1	-30	 30;
	 86	 94	 0.00174	 0.00496	 0.00065	 57	 57	 57	 0	 0	 1	-30	 30;
	 86	 106	 0.00455	 0.01405	 0.0016	 75	 75	 75	 0	 0	 1	-30	 30;
	 86	 118	 0.00504	 0.01562	 0.00173	 113.33	 130.77	 130.8	 0	 0	 1	-30	 30;
	 86	 121	 0.00711	 0.02322	 0.00234	 111.88	 129.09	 129.1	 0	 0	 1	-30	 30;
	 87	 101	 0.00496	 0.01628	 0.00164	 297.93	 343.76	 343.8	 0	 0	 1	-30	 30;
	 87	 113	 0.00496	 0.01496	 0.00179	 128.65	 148.45	 148.45	 0	 0	 1	-30	 30;
	 87	 119	 0.00504	 0.01562	 0.00173	 114.63	 132.27	 132.3	 0	 0	 1	-30	 30;
	 88	 89	 0.00124	 0.00421	 0.00059	 70	 70	 70	 0	 0	 1	-30	 30;
	 89	 91	 0.00413	 0.01587	 0.00183	 88.79	 106.54	 106.54	 0	 0	 1	-30	 30;
	 89	 103	 0.00488	 0.01678	 0.00193	 103.76	 119.72	 119.72	 0	 0	 1	-30	 30;
	 90	 91	 8e-05	 0.00083	 0	 438	 438	 438	 0	 0	 1	-30	 30;
	 90	 93	 0.00066	 0.00207	 0.00021	 75	 75	 75	 0	 0	 1	-30	 30;
	 90	 97	 0.00066	 0.0024	 0.00031	 80	 80	 80	 0	 0	 1	-30	 30;
	 90	 109	 0.00223	 0.00826	 0.00099	 70	 70	 70	 0	 0	 1	-30	 30;
	 90	 171	 0.0001	 0.01	 0	 112.12	 129.36	 129.4	 0	 0	 1	-30	 30;
	 91	 92	 0.00066	 0.00215	 0.00022	 75	 75	 75	 0	 0	 1	-30	 30;
	 91	 125	 0.00091	 0.00273	 0.00033	 75	 75	 75	 0	 0	 1	-30	 30;
	 95	 96	 8e-05	 0.00083	 0	 438	 438	 438	 0	 0	 1	-30	 30;
	 95	 126	 0.00273	 0.00785	 0.00081	 111.72	 128.91	 128.91	 0	 0	 1	-30	 30;
	 96	 112	 0.01198	 0.03702	 0.00418	 116.03	 133.88	 133.9	 0	 0	 1	-30	 30;
	 98	 99	 8e-05	 0.00083	 0	 438	 438	 438	 0	 0	 1	-30	 30;
	 98	 130	 0.00463	 0.01446	 0.00163	 75	 75	 75	 0	 0	 1	-30	 30;
	 99	 123	 0.00413	 0.01289	 0.00144	 90.72	 104.67	 104.7	 0	 0	 1	-30	 30;
	 100	 101	 8e-05	 0.00083	 0	 438	 438	 438	 0	 0	 1	-30	 30;
	 100	 104	 0.00198	 0.00645	 0.00065	 308.68	 356.17	 356.2	 0	 0	 1	-30	 30;
	 102	 122	 0.00149	 0.00479	 0.00048	 75	 75	 75	 0	 0	 1	-30	 30;
	 103	 108	 0.00769	 0.02711	 0.00317	 85.94	 111.72	 111.72	 0	 0	 1	-30	 30;
	 103	 118	 0.01025	 0.03198	 0.00354	 107.83	 124.42	 124.42	 0	 0	 1	-30	 30;
	 103	 119	 0.01025	 0.03198	 0.00354	 108.26	 124.92	 124.92	 0	 0	 1	-30	 30;
	 104	 105	 8e-05	 0.00083	 0	 438	 438	 438	 0	 0	 1	-30	 30;
	 104	 111	 0.0024	 0.00727	 0.00087	 110.28	 143.37	 143.4	 0	 0	 1	-30	 30;
	 105	 122	 0.00405	 0.01264	 0.0014	 551.7	 636.57	 636.6	 0	 0	 1	-30	 30;
	 106	 107	 8e-05	 0.00083	 0	 438	 438	 438	 0	 0	 1	-30	 30;
	 107	 130	 0.00091	 0.00256	 0.00033	 75	 75	 75	 0	 0	 1	-30	 30;
	 108	 109	 8e-05	 0.00083	 0	 438	 438	 438	 0	 0	 1	-30	 30;
	 110	 111	 8e-05	 0.00083	 0	 438	 438	 438	 0	 0	 1	-30	 30;
	 112	 113	 8e-05	 0.00083	 0	 438	 438	 438	 0	 0	 1	-30	 30;
	 114	 122	 0.00289	 0.00719	 0.00076	 63	 63	 63	 0	 0	 1	-30	 30;
	 115	 122	 0.0024	 0.00694	 0.0009	 75	 75	 75	 0	 0	 1	-30	 30;
	 116	 118	 0.00521	 0.00884	 0.00089	 47	 47	 47	 0	 0	 1	-30	 30;
	 117	 119	 0.00521	 0.00884	 0.00089	 47	 47	 47	 0	 0	 1	-30	 30;
	 120	 121	 0.00074	 0.00231	 0.00026	 75	 75	 75	 0	 0	 1	-30	 30;
	 123	 124	 8e-05	 0.00083	 0	 438	 438	 438	 0	 0	 1	-30	 30;
	 126	 127	 8e-05	 0.00083	 0	 438	 438	 438	 0	 0	 1	-30	 30;
	 127	 142	 0.0001	 0.01	 0	 111.67	 128.86	 128.9	 0	 0	 1	-30	 30;
	 128	 129	 8e-05	 0.00083	 0	 438	 438	 438	 0	 0	 1	-30	 30;
	 128	 130	 0	 0.0002	 0	 75	 75	 75	 0	 0	 1	-30	 30;
	 131	 133	 0.01093	 0.05919	 0.08439	 180	 180	 180	 0	 0	 1	-30	 30;
	 132	 133	 0.00194	 0.01415	 0.0223	 341	 341	 341	 0	 0	 1	-30	 30;
	 134	 152	 0.01248	 0.04595	 0.00524	 75	 75	 75	 0	 0	 1	-30	 30;
	 135	 136	 8e-05	 0.00083	 0	 438	 438	 438	 0	 0	 1	-30	 30;
	 135	 154	 0.00678	 0.02215	 0.00225	 75	 75	 75	 0	 0	 1	-30	 30;
	 136	 167	 0.00413	 0.01355	 0.00138	 75	 75	 75	 0	 0	 1	-30	 30;
	 137	 138	 8e-05	 0.00083	 0	 438	 438	 438	 0	 0	 1	-30	 30;
	 137	 145	 0.00174	 0.00496	 0.00065	 57	 57	 57	 0	 0	 1	-30	 30;
	 137	 155	 0.00455	 0.01405	 0.0016	 327.49	 392.99	 393	 0	 0	 1	-30	 30;
	 137	 164	 0.00504	 0.01562	 0.00173	 161.98	 186.9	 186.9	 0	 0	 1	-30	 30;
	 137	 167	 0.00711	 0.02322	 0.00234	 94.98	 113.98	 114	 0	 0	 1	-30	 30;
	 138	 150	 0.00496	 0.01628	 0.00164	 101.54	 121.85	 121.85	 0	 0	 1	-30	 30;
	 138	 159	 0.00496	 0.01496	 0.00179	 99.32	 114.6	 114.6	 0	 0	 1	-30	 30;
	 138	 165	 0.00504	 0.01562	 0.00173	 158.1	 182.42	 182.42	 0	 0	 1	-30	 30;
	 139	 140	 0.00124	 0.00421	 0.00059	 70	 70	 70	 0	 0	 1	-30	 30;
	 140	 142	 0.00413	 0.01587	 0.00183	 92.72	 106.99	 107	 0	 0	 1	-30	 30;
	 140	 152	 0.00488	 0.01678	 0.00193	 78.62	 102.21	 102.21	 0	 0	 1	-30	 30;
	 141	 142	 8e-05	 0.00083	 0	 438	 438	 438	 0	 0	 1	-30	 30;
	 141	 144	 0.00066	 0.00207	 0.00021	 75	 75	 75	 0	 0	 1	-30	 30;
	 141	 148	 0.00066	 0.0024	 0.00031	 80	 80	 80	 0	 0	 1	-30	 30;
	 141	 157	 0.00223	 0.00826	 0.00099	 95.55	 110.25	 110.3	 0	 0	 1	-30	 30;
	 142	 143	 0.00066	 0.00215	 0.00022	 75	 75	 75	 0	 0	 1	-30	 30;
	 142	 169	 0.00091	 0.00273	 0.00033	 75	 75	 75	 0	 0	 1	-30	 30;
	 146	 147	 8e-05	 0.00083	 0	 438	 438	 438	 0	 0	 1	-30	 30;
	 146	 170	 0.00273	 0.00785	 0.00081	 101.21	 121.45	 121.5	 0	 0	 1	-30	 30;
	 147	 158	 0.01198	 0.03702	 0.00418	 97.23	 116.68	 116.7	 0	 0	 1	-30	 30;
	 149	 150	 8e-05	 0.00083	 0	 438	 438	 438	 0	 0	 1	-30	 30;
	 149	 153	 0.00198	 0.00645	 0.00065	 108.7	 130.44	 130.44	 0	 0	 1	-30	 30;
	 151	 168	 0.00149	 0.00479	 0.00048	 75	 75	 75	 0	 0	 1	-30	 30;
	 152	 156	 0.00769	 0.02711	 0.00317	 85.94	 111.72	 111.72	 0	 0	 1	-30	 30;
	 152	 164	 0.01025	 0.03198	 0.00354	 169.56	 195.65	 195.7	 0	 0	 1	-30	 30;
	 152	 165	 0.01025	 0.03198	 0.00354	 166.59	 192.22	 192.22	 0	 0	 1	-30	 30;
	 153	 154	 8e-05	 0.00083	 0	 438	 438	 438	 0	 0	 1	-30	 30;
	 154	 168	 0.00405	 0.01264	 0.0014	 199.4	 230.07	 230.1	 0	 0	 1	-30	 30;
	 156	 157	 8e-05	 0.00083	 0	 438	 438	 438	 0	 0	 1	-30	 30;
	 158	 159	 8e-05	 0.00083	 0	 438	 438	 438	 0	 0	 1	-30	 30;
	 160	 168	 0.00289	 0.00719	 0.00076	 63	 63	 63	 0	 0	 1	-30	 30;
	 161	 168	 0.0024	 0.00694	 0.0009	 75	 75	 75	 0	 0	 1	-30	 30;
	 162	 164	 0.00521	 0.00884	 0.00089	 47	 47	 47	 0	 0	 1	-30	 30;
	 163	 165	 0.00521	 0.00884	 0.00089	 47	 47	 47	 0	 0	 1	-30	 30;
	 166	 167	 0.00074	 0.00231	 0.00026	 75	 75	 75	 0	 0	 1	-30	 30;
	 170	 171	 8e-05	 0.00083	 0	 438	 438	 438	 0	 0	 1	-30	 30;
	 27	 1	 0.00141	 0.06975	-0.00232	 160	 160	 160	 1	 0	 1	-30	 30;
	 34	 4	 0.00143	 0.06701	-0.0029	 160	 160	 160	 1	 0	 1	-30	 30;
	 39	 5	 0.00174	 0.09356	-0.00339	 554.71	 640.05	 640.05	 1	 0	 1	-30	 30;
	 40	 6	 0.00167	 0.09275	-0.003	 160	 160	 160	 0.99807	 0	 1	-30	 30;
	 103	 82	 0.00167	 0.09275	-0.003	 160	 160	 160	 0.99807	 0	 1	-30	 30;
	 152	 133	 0.00167	 0.09275	-0.003	 160	 160	 160	 0.99807	 0	 1	-30	 30;
];

mpc_regionR2.gencost = [
%	2           startup     shutdown    n           c(n-1)...c0 
	 2	 0	 0	 3	 0	 13.09	 4280;
	 2	 0	 0	 3	 0.1005	 52.86	 3001;
	 2	 0	 0	 3	 0.1003	 52.9	 2957;
	 2	 0	 0	 3	 0	 70	 247;
	 2	 0	 0	 3	 0.05251	 44.89	 1787;
	 2	 0	 0	 3	 0.3784	 0	 2845;
	 2	 0	 0	 3	 0.06242	 43.51	 1696;
	 2	 0	 0	 3	 0.007858	 18.53	 214.6;
	 2	 0	 0	 3	 0	 19.47	 519.8;
	 2	 0	 0	 3	 0.2025	 68.71	 1384;
	 2	 0	 0	 3	 0.1431	 63.43	 1774;
	 2	 0	 0	 3	 0.0454	 44.38	 318.3;
	 2	 0	 0	 3	 0.1066	 52.17	 3319;
	 2	 0	 0	 3	 0.8274	 14.92	 1335;
	 2	 0	 0	 3	 0	 3.544	 205.7;
	 2	 0	 0	 3	 0.008946	 17.98	 164.5;
	 2	 0	 0	 3	 0.06768	 18.69	 974.5;
	 2	 0	 0	 3	 0	 16.31	 691;
	 2	 0	 0	 3	 0.01385	 17.37	 390.3;
	 2	 0	 0	 3	 0.1028	 52.35	 645.2;
	 2	 0	 0	 3	 0.05251	 44.89	 1793;
	 2	 0	 0	 3	 0.1328	 46.24	 1523;
	 2	 0	 0	 3	 0.0666	 49.75	 1802;
	 2	 0	 0	 3	 0.1065	 52.18	 3283;
	 2	 0	 0	 3	 0.7082	 63.26	-1342;
	 2	 0	 0	 3	 0	 12.44	 754.9;
	 2	 0	 0	 3	 0.008451	 19.24	 94.79;
	 2	 0	 0	 3	 0.01008	 20.95	 410.9;
	 2	 0	 0	 3	 1.574	 0	 340.8;
	 2	 0	 0	 3	 0	 12.52	 447.4;
	 2	 0	 0	 3	 0.1268	 37.17	 3597;
	 2	 0	 0	 3	 0	 53.07	 1814;
	 2	 0	 0	 3	 0.09482	 53.07	 1232;
	 2	 0	 0	 3	 0.08745	 38.18	 1970;
	 2	 0	 0	 3	 0.02322	 27.4	 8754;
	 2	 0	 0	 3	 0.8291	 14.6	 1392;
	 2	 0	 0	 3	 0	 5.599	 421.1;
	 2	 0	 0	 3	 0.00804	 18.71	 439.7;
];


% -------------------- mpc_regionR3 --------------------

mpc_regionR3.version = '2';
mpc_regionR3.baseMVA = 100.0000;
mpc_regionR3.bus = [
%	bus_i       type        Pd          Qd          Gs          Bs          area        Vm          Va          baseKV      zone        Vmax        Vmin        
	 1	 1	 8.423	 0.125	 0	 0	 1	 0.995	 0	 138	 3	 1.06	 0.93;
	 2	 1	 17.039	-4.338	 0	 0	 1	 0.995	 0	 138	 3	 1.06	 0.93;
	 3	 1	 3.05	 3.389	 0	 0	 1	 0.995	 0	 138	 4	 1.06	 0.93;
	 4	 2	 15.087	 7.179	 0	 4.51851848771	 1	 0.995	 0	 69	 4	 1.06	 0.93;
	 5	 1	-8.812	 1.561	 0	 0	 1	 0.995	 0	 138	 4	 1.06	 0.93;
	 6	 1	 6.563	 3.102	 0	 0	 1	 0.995	 0	 46	 4	 1.06	 0.93;
	 7	 1	 0	 0	 0	-1.93571405737	 1	 0.995	 0	 69	 4	 1.06	 0.93;
	 8	 1	 3.862	 2.835	 0	 0	 1	 0.995	 0	 46	 4	 1.06	 0.93;
	 9	 1	 15.95	 4.283	 0	 0	 1	 0.995	 0	 46	 4	 1.06	 0.93;
	 10	 2	 0	 0	 0	 25.9538764431	 1	 0.995	 0	 138	 4	 1.06	 0.93;
	 11	 1	 0	 0	 0	 0	 1	 0.995	 0	 69	 4	 1.06	 0.93;
	 12	 1	 0	 0	 0	 17.9999055877	 1	 0.995	 0	 69	 4	 1.06	 0.93;
	 13	 1	 7.59	 3.163	 0	 0	 1	 0.995	 0	 69	 4	 1.06	 0.93;
	 14	 2	 2.095	 3.102	 0	 0	 1	 0.995	 0	 46	 4	 1.06	 0.93;
	 15	 1	 0	 0	 0	 0	 1	 0.995	 0	 69	 4	 1.06	 0.93;
	 16	 1	 12.93	 7.665	 0	 0	 1	 0.995	 0	 69	 4	 1.06	 0.93;
	 17	 1	 2.208	 2.044	 0	 17.9999589145	 1	 0.995	 0	 46	 4	 1.06	 0.93;
	 18	 1	 1.397	 2.722	 0	 0	 1	 0.995	 0	 46	 4	 1.06	 0.93;
	 19	 1	 8.369	 0.462	 0	 0	 1	 0.995	 0	 69	 4	 1.06	 0.93;
	 20	 1	 2.855	 2.835	 0	 0	 1	 0.995	 0	 46	 4	 1.06	 0.93;
	 21	 1	 1.294	 2.27	 0	 0	 1	 0.995	 0	 138	 4	 1.06	 0.93;
	 22	 1	 19.452	 2.527	 0	 0	 1	 0.995	 0	 138	 4	 1.06	 0.93;
	 23	 1	 27.596	 11.586	 0	 0	 1	 0.995	 0	 138	 4	 1.06	 0.93;
	 24	 1	 0	 0	 0	 0	 1	 0.995	 0	 138	 4	 1.06	 0.93;
	 25	 1	 0	 0	 0	 0	 1	 0.995	 0	 1	 4	 1.06	 0.93;
	 26	 2	 10.794	 3.759	 0	 0	 1	 0.995	 0	 46	 4	 1.06	 0.93;
	 27	 1	 0	 0	 0	 5.25176666127	 1	 0.995	 0	 46	 4	 1.06	 0.93;
	 28	 1	 0	 0	 0	 26.3057695938	 1	 0.995	 0	 138	 4	 1.06	 0.93;
	 29	 1	 5.838	 7.097	 0	 0	 1	 0.995	 0	 46	 4	 1.06	 0.93;
	 30	 1	 4.848	 3.379	 0	 0	 1	 0.995	 0	 46	 4	 1.06	 0.93;
	 31	 1	 19.329	 2.876	 0	 2.218	 1	 0.995	 0	 138	 4	 1.06	 0.93;
	 32	 2	 16.042	 11.246	 0	 0	 1	 0.995	 0	 69	 4	 1.06	 0.93;
	 33	 1	 6.111	 2.701	 0	 1.81258762688	 1	 0.995	 0	 69	 4	 1.06	 0.93;
	 34	 1	 7.456	 2.403	 0	 0	 1	 0.995	 0	 69	 4	 1.06	 0.93;
	 35	 1	 22.656	 14.768	 0	 17.9997272614	 1	 0.995	 0	 69	 4	 1.06	 0.93;
	 36	 1	 0	 0	 0	 0	 1	 0.995	 0	 1	 4	 1.06	 0.93;
	 37	 1	 0	 0	 0	 26.9998870416	 1	 0.995	 0	 69	 4	 1.06	 0.93;
	 38	 1	 0	 0	 0	 0	 1	 0.995	 0	 161	 4	 1.06	 0.93;
	 39	 1	 8.679	 4.077	 0	 0	 1	 0.995	 0	 138	 4	 1.06	 0.93;
	 40	 1	 7.764	 2.804	 0	 0	 1	 0.995	 0	 138	 4	 1.06	 0.93;
	 41	 1	 16.155	 4.447	 0	 10.617548809	 1	 0.995	 0	 69	 4	 1.06	 0.93;
	 42	 1	 12.314	 10.127	 0	 0	 1	 0.995	 0	 69	 4	 1.06	 0.93;
	 43	 1	 0	 0	 0	 0	 1	 0.995	 0	 138	 4	 1.06	 0.93;
	 44	 1	 9.86	 4.067	 0	 0	 1	 0.995	 0	 138	 4	 1.06	 0.93;
	 45	 1	 0	 0	 0	 0	 1	 0.995	 0	 161	 4	 1.06	 0.93;
	 46	 1	 5.413	 0.37	 0	 0	 1	 0.995	 0	 69	 4	 1.06	 0.93;
	 47	 1	 4.211	 1.684	 0	 0	 1	 0.995	 0	 69	 4	 1.06	 0.93;
	 48	 1	 11.472	 8.309	 0	 0	 1	 0.995	 0	 69	 4	 1.06	 0.93;
	 49	 1	 9.089	 2.65	 0	 0	 1	 0.995	 0	 69	 4	 1.06	 0.93;
	 50	 1	 0	 0	 0	 0	 1	 0.995	 0	 46	 4	 1.06	 0.93;
	 51	 1	 15.775	 4.509	 0	 10.796535943	 1	 0.995	 0	 69	 4	 1.06	 0.93;
	 52	 1	 9.521	 3.112	 0	 0	 1	 0.995	 0	 69	 4	 1.06	 0.93;
	 53	 2	 0	 0	 0	 0	 1	 0.995	 0	 69	 4	 1.06	 0.93;
	 54	 1	 2.629	 3.677	 0	 0	 1	 0.995	 0	 138	 4	 1.06	 0.93;
	 55	 1	-2.331	 0.668	 0	 0	 1	 0.995	 0	 138	 4	 1.06	 0.93;
	 56	 1	 0.021	 2.054	 0	 0	 1	 0.995	 0	 46	 4	 1.06	 0.93;
	 57	 1	 5.115	 1.14	 0	 0	 1	 0.995	 0	 138	 4	 1.06	 0.93;
	 58	 1	 0	 0	 0	 0	 1	 0.995	 0	 138	 4	 1.06	 0.93;
	 59	 1	 4.837	 3.05	 0	 0	 1	 0.995	 0	 69	 4	 1.06	 0.93;
	 60	 2	 9.151	 5.967	 0	 4.20219431961	 1	 0.995	 0	 69	 4	 1.06	 0.93;
	 61	 1	 0	 0	 0	 0	 1	 0.995	 0	 1	 4	 1.06	 0.93;
	 62	 1	 0	 0	 0	 0	 1	 0.995	 0	 138	 4	 1.06	 0.93;
	 63	 2	 44.532	 2.978	 0	 0	 1	 0.995	 0	 161	 4	 1.06	 0.93;
	 64	 2	 15.18	 8.114	 0	 0	 1	 0.995	 0	 138	 4	 1.06	 0.93;
	 65	 1	 0	 0	 0	 0	 1	 0.995	 0	 161	 4	 1.06	 0.93;
	 66	 1	 3.543	 0.719	 0	 0	 1	 0.995	 0	 138	 6	 1.06	 0.93;
	 67	 2	 19.319	-7.094	 0	-7.317	 1	 0.995	 0	 138	 6	 1.06	 0.93;
	 68	 1	 2.896	 0	 0	 0	 1	 0.995	 0	 138	 6	 1.06	 0.93;
	 69	 1	 4.139	 1.027	 0	 0	 1	 0.995	 0	 138	 6	 1.06	 0.93;
	 70	 1	 2.342	 0.411	 0	 0	 1	 0.995	 0	 138	 6	 1.06	 0.93;
	 71	 1	 10.692	 2.054	 0	 0	 1	 0.995	 0	 138	 6	 1.06	 0.93;
	 72	 1	 0	 0	 0	 0	 1	 0.995	 0	 138	 6	 1.06	 0.93;
	 73	 1	 6.44	 3.081	 0	 0	 1	 0.995	 0	 138	 6	 1.06	 0.93;
	 74	 1	 9.469	 3.081	 0	 0	 1	 0.995	 0	 138	 6	 1.06	 0.93;
	 75	 1	 14.491	 3.576	 0	 0	 1	 0.995	 0	 138	 6	 1.06	 0.93;
	 76	 1	 0.709	 0.514	 0	-7.663	 1	 0.995	 0	 138	 6	 1.06	 0.93;
	 77	 1	 12.561	 0.924	 0	 12.284	 1	 0.995	 0	 138	 6	 1.06	 0.93;
	 78	 2	 5.063	 4.108	 0	 0	 1	 0.995	 0	 138	 6	 1.06	 0.93;
	 79	 1	 6.08	 4.108	 0	 0	 1	 0.995	 0	 138	 6	 1.06	 0.93;
	 80	 1	 15.866	 8.798	 0	 6.261	 1	 0.995	 0	 138	 8	 1.06	 0.93;
	 81	 1	 2.136	 0.863	 0	 0	 1	 0.995	 0	 138	 8	 1.06	 0.93;
	 82	 1	 8.453	 9.946	 0	 0	 1	 0.995	 0	 138	 11	 1.06	 0.93;
	 83	 1	 5.053	 1.674	 0	 0	 1	 0.995	 0	 138	 11	 1.06	 0.93;
];

mpc_regionR3.gen = [
%	bus         Pg          Qg          Qmax        Qmin        Vg          mBase       status      Pmax        Pmin        Pc1         Pc2         Qc1min      Qc1max      Qc2min      Qc2max      ramp_agc    ramp_10     ramp_30     ramp_q      apf         
	 4	 156.05	 0	 160	-160	 0.995	 100	 1	 309.474	 2.626;
	 10	 39.1815	 0	 160	-160	 0.995	 100	 1	 76.902	 1.461;
	 14	 144.049	 0	 160	-160	 0.995	 100	 1	 286.316	 1.782;
	 26	 16.787	 0	 160	-160	 0.995	 100	 1	 29.593	 3.981;
	 31	 0	 0	 33.333	-33.333	 0.995	 100	 0	 44.434	 29.434;
	 32	 22.7335	 0	 160	-160	 0.995	 100	 1	 38.823	 6.644;
	 53	 137.2695	 0	 160	-160	 0.995	 100	 1	 272.632	 1.907;
	 60	 16.223	 0	 160	-160	 0.995	 100	 1	 28.717	 3.729;
	 63	 84.149	 0	 160	-160	 0.995	 100	 1	 134.156	 34.142;
	 64	 75.017	 0	 160	-160	 0.995	 100	 1	 124.492	 25.542;
	 67	 146.263	 0	 101.016	-101.016	 0.995	 7.22	 1	 290.526	 2;
	 67	 0	 0	 97.356	-97.356	 0.995	 5	 0	 280	 2;
	 67	 0	 0	 107.97	-107.97	 0.995	 5	 0	 310.526	 2;
	 76	 0	 0	 33.333	-33.333	 0.995	 100	 0	 275	 2.602;
	 77	 0	 0	 33.333	-33.333	 0.995	 100	 0	 29.367	 14.367;
	 78	 27.0495	 0	 160	-160	 0.995	 100	 1	 47.8	 6.299;
];

mpc_regionR3.branch = [
%	fbus        tbus        r           x           b           rateA       rateB       rateC       ratio       angle       status      angmin      angmax      
	 1	 2	 0.00355	 0.01157	 0.00121	 90	 90	 90	 0	 0	 1	-30	 30;
	 1	 76	 0.0001	 0.01	 0	 83.7	 98.6	 98.6	 0	 0	 1	-30	 30;
	 2	 77	 0.0001	 0.01	 0	 83.7	 98.6	 98.6	 0	 0	 1	-30	 30;
	 3	 10	 0.00428	 0.02744	 0.0076	 270	 270	 270	 0	 0	 1	-30	 30;
	 3	 54	 0.00321	 0.02058	 0.0029	 270	 270	 270	 0	 0	 1	-30	 30;
	 4	 35	 0.0349	 0.0517	 0	 260	 312	 312	 0	 0	 1	-30	 30;
	 5	 28	 0.0057	 0.0207	 0.046	 171	 174	 174	 0	 0	 1	-30	 30;
	 5	 44	 0.009	 0.0328	 0.0074	 165	 165	 165	 0	 0	 1	-30	 30;
	 6	 17	 0.1299	 0.1733	 0	 260	 312	 312	 0	 0	 1	-30	 30;
	 6	 20	 0.2386	 0.3089	 0	 260	 312	 312	 0	 0	 1	-30	 30;
	 6	 26	 0.1225	 0.287	 0	 260	 312	 312	 0	 0	 1	-30	 30;
	 6	 30	 0.1431	 0.3619	 0	 260	 312	 312	 0	 0	 1	-30	 30;
	 7	 33	 0.04268	 0.108	 0	 260	 312	 312	 0	 0	 1	-30	 30;
	 8	 17	 0.05465	 0.12933	 0	 260	 312	 312	 0	 0	 1	-30	 30;
	 8	 56	 0.01669	 0.03948	 0	 260	 312	 312	 0	 0	 1	-30	 30;
	 10	 62	 0.0134	 0.0483	 0.011	 319	 319	 319	 0	 0	 1	-30	 30;
	 11	 13	 0.0159	 0.0402	 0	 260	 312	 312	 0	 0	 1	-30	 30;
	 11	 42	 0.0172	 0.0434	 0	 260	 312	 312	 0	 0	 1	-30	 30;
	 11	 47	 0.0485	 0.1228	 0	 260	 312	 312	 0	 0	 1	-30	 30;
	 12	 52	 0.06765	 0.0975	 0	 260	 312	 312	 0	 0	 1	-30	 30;
	 12	 59	 0.025	 0.0632	 0	 260	 312	 312	 0	 0	 1	-30	 30;
	 13	 34	 0.0129	 0.0326	 0	 260	 312	 312	 0	 0	 1	-30	 30;
	 14	 18	 0.09062	 0.14311	 0	 260	 312	 312	 0	 0	 1	-30	 30;
	 15	 52	 0.0005	 0.084	 0	 260	 312	 312	 0	 0	 1	-30	 30;
	 16	 37	 0.0205	 0.0515	 0	 260	 312	 312	 0	 0	 1	-30	 30;
	 17	 27	 0.186	 0.2481	 0	 260	 312	 312	 0	 0	 1	-30	 30;
	 17	 30	 0.1224	 0.2276	 0	 260	 312	 312	 0	 0	 1	-30	 30;
	 18	 29	 0.09998	 0.23659	 0	 260	 312	 312	 0	 0	 1	-30	 30;
	 18	 56	 0.05478	 0.12964	 0	 260	 312	 312	 0	 0	 1	-30	 30;
	 19	 52	 0.06732	 0.17033	 0	 260	 312	 312	 0	 0	 1	-30	 30;
	 20	 50	 0.3786	 0.5048	 0	 260	 312	 312	 0	 0	 1	-30	 30;
	 21	 43	 0.0025	 0.0152	 0.0426	 171	 191	 191	 0	 0	 1	-30	 30;
	 21	 64	 0.003	 0.0178	 0.05	 235	 287	 287	 0	 0	 1	-30	 30;
	 22	 58	 0.0051	 0.03292	 0.00445	 69	 69	 69	 0	 0	 1	-30	 30;
	 23	 39	 0.0091	 0.0327	 0.0074	 165	 165	 165	 0	 0	 1	-30	 30;
	 24	 54	 0.0073	 0.0902	 0.0253	 595	 645	 645	 0	 0	 1	-30	 30;
	 28	 58	 0.00649	 0.03695	 0.00861	 285.35	 329.25	 329.3	 0	 0	 1	-30	 30;
	 28	 64	 0.0099	 0.0524	 0.0142	 489.06	 564.29	 564.3	 0	 0	 1	-30	 30;
	 31	 40	 0.0116	 0.066	 0.0152	 236	 266	 266	 0	 0	 1	-30	 30;
	 31	 82	 0.0001	 0.01	 0	 83.7	 98.6	 98.6	 0	 0	 1	-30	 30;
	 32	 46	 0.07964	 0.20154	 0	 260	 312	 312	 0	 0	 1	-30	 30;
	 32	 48	 0.0253	 0.064	 0	 260	 312	 312	 0	 0	 1	-30	 30;
	 33	 51	 0.0167	 0.04225	 0	 260	 312	 312	 0	 0	 1	-30	 30;
	 34	 37	 0.0093	 0.0236	 0	 260	 312	 312	 0	 0	 1	-30	 30;
	 35	 48	 0.0285	 0.0462	 0	 260	 312	 312	 0	 0	 1	-30	 30;
	 38	 63	 0.0031	 0.0214	 0.0092	 234	 234	 234	 0	 0	 1	-30	 30;
	 38	 65	 0.00204	 0.014	 0.00607	 208	 226	 226	 0	 0	 1	-30	 30;
	 39	 44	 0.0105	 0.0381	 0.0086	 165	 165	 165	 0	 0	 1	-30	 30;
	 40	 58	 0.00331	 0.01875	 0.00493	 220	 220	 220	 0	 0	 1	-30	 30;
	 41	 51	 0.01051	 0.02659	 0	 260	 312	 312	 0	 0	 1	-30	 30;
	 42	 59	 0.0172	 0.0434	 0	 260	 312	 312	 0	 0	 1	-30	 30;
	 45	 65	 0.00306	 0.021	 0.00912	 199	 226	 226	 0	 0	 1	-30	 30;
	 47	 49	 0.059	 0.1492	 0	 260	 312	 312	 0	 0	 1	-30	 30;
	 49	 53	 0.027	 0.0682	 0	 47	 47	 47	 0	 0	 1	-30	 30;
	 54	 57	 0.00321	 0.02058	 0.0029	 259	 278	 278	 0	 0	 1	-30	 30;
	 55	 57	 0.0037	 0.0238	 0.0066	 178	 193	 193	 0	 0	 1	-30	 30;
	 64	 67	 0.0001	 0.01	 0	 556.66	 642.3	 642.3	 0	 0	 1	-30	 30;
	 66	 70	 0.01959	 0.06355	 0.00659	 104.82	 120.95	 121	 0	 0	 1	-30	 30;
	 67	 75	 0.01504	 0.03075	 0.00298	 55	 55	 55	 0	 0	 1	-30	 30;
	 67	 78	 0.00355	 0.0114	 0.00118	 201.75	 232.79	 232.8	 0	 0	 1	-30	 30;
	 67	 79	 0.00289	 0.00926	 0.00096	 174.67	 201.54	 201.54	 0	 0	 1	-30	 30;
	 68	 72	 0.00504	 0.00901	 0.00084	 55	 55	 55	 0	 0	 1	-30	 30;
	 69	 70	 8e-05	 0.00083	 0	 438	 438	 438	 0	 0	 1	-30	 30;
	 69	 72	 0.00694	 0.02281	 0.0023	 112.35	 129.63	 129.63	 0	 0	 1	-30	 30;
	 71	 72	 8e-05	 0.00083	 0	 438	 438	 438	 0	 0	 1	-30	 30;
	 71	 74	 0.02017	 0.06405	 0.00675	 81	 81	 81	 0	 0	 1	-30	 30;
	 71	 79	 0.00694	 0.02256	 0.00234	 166.64	 192.27	 192.3	 0	 0	 1	-30	 30;
	 73	 74	 8e-05	 0.00083	 0	 438	 438	 438	 0	 0	 1	-30	 30;
	 73	 76	 0.00545	 0.01752	 0.00183	 81	 81	 81	 0	 0	 1	-30	 30;
	 73	 77	 0.03702	 0.12132	 0.0121	 81	 81	 81	 0	 0	 1	-30	 30;
	 78	 80	 0.0001	 0.01	 0	 129.52	 149.44	 149.44	 0	 0	 1	-30	 30;
	 80	 81	 0.02182	 0.07107	 0.00737	 120	 120	 120	 0	 0	 1	-30	 30;
	 82	 83	 8e-05	 0.00083	 0	 438	 438	 438	 0	 0	 1	-30	 30;
	 7	 61	 0.0051	 0.0103	 0	 260	 312	 312	 1.0072	 0	 1	-30	 30;
	 9	 36	 0.0091	 0.0116	 0	 260	 312	 312	 1.0043	 0	 1	-30	 30;
	 10	 25	 0.0001	 0.0472	 0	 260	 312	 312	 1	 0	 1	-30	 30;
	 23	 12	 0.0073	 0.0152	 0	 260	 312	 312	 1	 0	 1	-30	 30;
	 23	 37	 0.00233	 0.0697	 0	 260	 312	 312	 1	 0	 1	-30	 30;
	 24	 11	 0.0023	 0.0687	 0	 260	 312	 312	 1	 0	 1	-30	 30;
	 27	 61	 0.0138	 0.03561	 0	 260	 312	 312	 1.0043	 0	 1	-30	 30;
	 28	 29	 0.0043	 0.03138	 0	 260	 312	 312	 1	 0	 1	-30	 30;
	 29	 25	 0.0117	 0.01756	 0	 260	 312	 312	 1.0043	 0	 1	-30	 30;
	 38	 15	 0.0032	 0.01113	 0	 260	 312	 312	 1	 0	 1	-30	 30;
	 40	 61	 0.0022	 0.01368	 0	 260	 312	 312	 1	 0	 1	-30	 30;
	 43	 32	 0.0068	 0.01485	 0	 260	 312	 312	 1	 0	 1	-30	 30;
	 45	 23	 0.00058	 0.0164	 0	 190	 216	 216	 1	 0	 1	-30	 30;
	 46	 25	 0.0056	 0.0824	 0	 260	 312	 312	 1.0072	 0	 1	-30	 30;
	 60	 50	 0	 0.07708	 0	 260	 312	 312	 1	 0	 1	-30	 30;
	 62	 36	 0.0003	 0.0782	 0	 118	 127	 127	 1	 0	 1	-30	 30;
];

mpc_regionR3.gencost = [
%	2           startup     shutdown    n           c(n-1)...c0 
	 2	 0	 0	 3	 0	 1.686	 212;
	 2	 0	 0	 3	 0	 49.98	-45.11;
	 2	 0	 0	 3	 0.008309	 19.07	 156.4;
	 2	 0	 0	 3	 0	 9.811	 151.8;
	 2	 0	 0	 3	 0	 81.4	-1502;
	 2	 0	 0	 3	 0.47	 8.416	 390;
	 2	 0	 0	 3	 0.009176	 20.04	 176.9;
	 2	 0	 0	 3	 0	 10.06	 244.8;
	 2	 0	 0	 3	 0.06668	 49.84	 1716;
	 2	 0	 0	 3	 0.06804	 51.51	 1294;
	 2	 0	 0	 3	 0.008081	 18.8	 193;
	 2	 0	 0	 3	 0.008703	 19.51	 209.6;
	 2	 0	 0	 3	 0	 2.138	 139;
	 2	 0	 0	 3	 0.01192	 16.16	 266.9;
	 2	 0	 0	 3	 0	 51.48	 17.44;
	 2	 0	 0	 3	 0	 7.31	 247;
];


% -------------------- mpc_regionR4 --------------------

mpc_regionR4.version = '2';
mpc_regionR4.baseMVA = 100.0000;
mpc_regionR4.bus = [
%	bus_i       type        Pd          Qd          Gs          Bs          area        Vm          Va          baseKV      zone        Vmax        Vmin        
	 1	 2	 0	 0	 0	-120.31	 1	 0.995	 0	 115	 1	 1.06	 0.93;
	 2	 2	 9.151	 5.402	 0	 0	 1	 0.995	 0	 35	 1	 1.06	 0.93;
	 3	 1	 8.699	 7.713	 0	 0	 1	 0.995	 0	 35	 1	 1.06	 0.93;
	 4	 1	 0	 0	 0	 0	 1	 0.995	 0	 138	 2	 1.06	 0.93;
	 5	 2	 4.396	 1.623	 0	 0	 1	 0.995	 0	 138	 2	 1.06	 0.93;
	 6	 1	 5.628	 2.362	 0	 0	 1	 0.995	 0	 138	 2	 1.06	 0.93;
	 7	 1	 0	 0	 0	 0	 1	 0.995	 0	 138	 2	 1.06	 0.93;
	 8	 1	 10.028	-13.958	 0	 0	 1	 0.995	 0	 138	 2	 1.06	 0.93;
	 9	 1	 1.921	 0.822	 0	 0	 1	 0.995	 0	 138	 2	 1.06	 0.93;
	 10	 1	 3.43	 1.458	 0	 0	 1	 0.995	 0	 138	 2	 1.06	 0.93;
	 11	 1	 13.886	 5.166	 0	 0	 1	 0.995	 0	 138	 2	 1.06	 0.93;
	 12	 1	 0	 0	 0	 0	 1	 0.995	 0	 138	 2	 1.06	 0.93;
	 13	 1	 0	 0	 0	 0	 1	 0.995	 0	 138	 2	 1.06	 0.93;
	 14	 1	 0	 0	 0	 0	 1	 0.995	 0	 138	 2	 1.06	 0.93;
	 15	 1	 1.027	 0.39	 0	 0	 1	 0.995	 0	 138	 2	 1.06	 0.93;
	 16	 1	 82.164	 40.055	 0	 0	 1	 0.995	 0	 138	 2	 1.06	 0.93;
	 17	 1	 39.039	-9.159	 0	-13.204	 1	 0.995	 0	 138	 2	 1.06	 0.93;
	 18	 1	 2.855	 1.705	 0	 0	 1	 0.995	 0	 138	 2	 1.06	 0.93;
	 19	 1	 5.988	 0.688	 0	 0	 1	 0.995	 0	 138	 2	 1.06	 0.93;
	 20	 1	 1.643	 0.411	 0	 0	 1	 0.995	 0	 138	 2	 1.06	 0.93;
	 21	 1	 1.099	 0.503	 0	 0	 1	 0.995	 0	 138	 2	 1.06	 0.93;
	 22	 1	 0	 0	 0	 0	 1	 0.995	 0	 138	 2	 1.06	 0.93;
	 23	 1	 0	 0	 0	 40.892	 1	 0.995	 0	 138	 2	 1.06	 0.93;
	 24	 1	 3.02	 1.284	 0	 0	 1	 0.995	 0	 138	 2	 1.06	 0.93;
	 25	 1	 0	 0	 0	 0	 1	 0.995	 0	 138	 2	 1.06	 0.93;
	 26	 2	 14.944	 0.565	 0	 0	 1	 0.995	 0	 138	 2	 1.06	 0.93;
	 27	 1	 11.534	 2.732	 0	 0	 1	 0.995	 0	 138	 2	 1.06	 0.93;
	 28	 1	 0.873	 0.082	 0	 0	 1	 0.995	 0	 138	 2	 1.06	 0.93;
	 29	 1	 0	 0	 0	 0	 1	 0.995	 0	 138	 2	 1.06	 0.93;
	 30	 1	 0.678	 0.401	 0	 0	 1	 0.995	 0	 138	 2	 1.06	 0.93;
	 31	 1	 0.544	 0.318	 0	 0	 1	 0.995	 0	 138	 2	 1.06	 0.93;
	 32	 1	 2.64	 0.955	 0	 0	 1	 0.995	 0	 138	 2	 1.06	 0.93;
	 33	 1	 0	 0	 0	 0	 1	 0.995	 0	 138	 2	 1.06	 0.93;
	 34	 1	 5.495	 0.781	 0	 0	 1	 0.995	 0	 138	 2	 1.06	 0.93;
	 35	 1	 0	 0	 0	 0	 1	 0.995	 0	 138	 2	 1.06	 0.93;
	 36	 1	 7.456	 2.783	 0	 0	 1	 0.995	 0	 138	 2	 1.06	 0.93;
	 37	 1	 0	 0	 0	 0	 1	 0.995	 0	 138	 2	 1.06	 0.93;
	 38	 2	 6.152	 2.116	 0	 0	 1	 0.995	 0	 138	 2	 1.06	 0.93;
	 39	 1	 0	 0	 0	 0	 1	 0.995	 0	 138	 2	 1.06	 0.93;
	 40	 1	 4.663	 1.941	 0	 0	 1	 0.995	 0	 138	 2	 1.06	 0.93;
	 41	 1	 4.396	 1.838	 0	 0	 1	 0.995	 0	 138	 2	 1.06	 0.93;
	 42	 2	 0	 0	 0	 0	 1	 0.995	 0	 138	 2	 1.06	 0.93;
	 43	 1	 0	 0	 0	 0	 1	 0.995	 0	 138	 2	 1.06	 0.93;
	 44	 1	 5.454	 1.52	 0	 0	 1	 0.995	 0	 138	 2	 1.06	 0.93;
	 45	 1	 7.621	 2.064	 0	 0	 1	 0.995	 0	 138	 2	 1.06	 0.93;
	 46	 1	 2.208	 0.575	 0	 0	 1	 0.995	 0	 138	 2	 1.06	 0.93;
	 47	 1	 0	 0	 0	 0	 1	 0.995	 0	 138	 2	 1.06	 0.93;
	 48	 1	 12.14	 4.786	 0	 0	 1	 0.995	 0	 138	 2	 1.06	 0.93;
	 49	 1	 11.513	 4.971	 0	 0	 1	 0.995	 0	 138	 2	 1.06	 0.93;
	 50	 1	 4.242	 1.746	 0	 0	 1	 0.995	 0	 138	 2	 1.06	 0.93;
	 51	 1	 2.64	 1.068	 0	 0	 1	 0.995	 0	 138	 2	 1.06	 0.93;
	 52	 1	 35.298	-1.734	 0	 0	 1	 0.995	 0	 138	 2	 1.06	 0.93;
	 53	 1	 0	 0	 0	 0	 1	 0.995	 0	 345	 3	 1.06	 0.93;
	 54	 1	 49.057	 17.073	 0	 0	 1	 0.995	 0	 345	 3	 1.06	 0.93;
	 55	 1	 280.42	 22.766	 0	 0	 1	 0.995	 0	 345	 3	 1.06	 0.93;
	 56	 1	 0	 0	 0	 0	 1	 0.995	 0	 345	 3	 1.06	 0.93;
	 57	 1	 79.49	 46.269	 0	 0	 1	 0.995	 0	 345	 3	 1.06	 0.93;
	 58	 1	 0	 0	 0	 0	 1	 0.995	 0	 345	 3	 1.06	 0.93;
	 59	 1	 0	 0	 0	 0	 1	 0.995	 0	 345	 3	 1.06	 0.93;
	 60	 1	 0	 0	 0	 0	 1	 0.995	 0	 345	 3	 1.06	 0.93;
	 61	 1	 659.876	-1.015	 0	-1.094	 1	 0.995	 0	 500	 3	 1.06	 0.93;
	 62	 1	 33.03	 53.478	 0	 0	 1	 0.995	 0	 345	 3	 1.06	 0.93;
	 63	 2	 47.614	 94.56	 0	 0	 1	 0.995	 0	 345	 3	 1.06	 0.93;
	 64	 3	 61.623	 123.246	 0	 0	 1	 0.995	 0	 500	 3	 1.06	 0.93;
	 65	 2	 1093.376	 292.448	 0	 0	 1	 0.995	 0	 500	 3	 1.06	 0.93;
	 66	 1	 384.16	 86.874	 0	 0	 1	 0.995	 0	 500	 3	 1.06	 0.93;
	 67	 1	 73.234	 60.344	 0	 0	 1	 0.995	 0	 345	 3	 1.06	 0.93;
	 68	 1	 69.903	-55.812	 0	 0	 1	 0.995	 0	 345	 3	 1.06	 0.93;
	 69	 1	 39.849	-2.773	 0	 0	 1	 0.995	 0	 345	 3	 1.06	 0.93;
	 70	 1	 14.425	 26.227	 0	 0	 1	 0.995	 0	 345	 3	 1.06	 0.93;
	 71	 1	 0	 0	 0	 0	 1	 0.995	 0	 345	 3	 1.06	 0.93;
	 72	 1	 154.151	 57.107	 0	 0	 1	 0.995	 0	 345	 3	 1.06	 0.93;
	 73	 1	 0	 0	 0	 0	 1	 0.995	 0	 500	 3	 1.06	 0.93;
	 74	 2	 0	 0	 0	 0	 1	 0.995	 0	 500	 3	 1.06	 0.93;
	 75	 1	 7.635	 39.439	 0	 0	 1	 0.995	 0	 345	 3	 1.06	 0.93;
	 76	 1	 50.866	 41.501	 0	 0	 1	 0.995	 0	 500	 3	 1.06	 0.93;
	 77	 2	 327.101	 7.402	 0	 0	 1	 0.995	 0	 345	 3	 1.06	 0.93;
	 78	 1	 3.954	 1.027	 0	 0	 1	 0.995	 0	 138	 3	 1.06	 0.93;
	 79	 1	 2.331	 1.14	 0	 0	 1	 0.995	 0	 138	 3	 1.06	 0.93;
	 80	 1	 1.623	 0.411	 0	 0	 1	 0.995	 0	 138	 3	 1.06	 0.93;
	 81	 1	 4.56	 1.13	 0	 0	 1	 0.995	 0	 138	 3	 1.06	 0.93;
	 82	 1	 14.266	 7.97	 0	 0	 1	 0.995	 0	 138	 3	 1.06	 0.93;
	 83	 1	 20.048	 11.534	 0	 0	 1	 0.995	 0	 138	 3	 1.06	 0.93;
	 84	 1	 0	 0	 0	 0	 1	 0.995	 0	 138	 3	 1.06	 0.93;
	 85	 1	 82.136	 9.435	 0	 0	 1	 0.995	 0	 138	 3	 1.06	 0.93;
	 86	 2	 20.541	 41.082	 0	 0	 1	 0.995	 0	 24	 3	 1.06	 0.93;
	 87	 1	 20.983	 21.178	 0	 0	 1	 0.995	 0	 138	 3	 1.06	 0.93;
	 88	 1	 37.487	 12.335	 0	 0	 1	 0.995	 0	 138	 3	 1.06	 0.93;
	 89	 1	 85.322	 11.126	 0	 0	 1	 0.995	 0	 138	 3	 1.06	 0.93;
	 90	 1	 0.154	 0.688	 0	 0	 1	 0.995	 0	 138	 3	 1.06	 0.93;
	 91	 1	 19.021	 12.581	 0	 0	 1	 0.995	 0	 138	 3	 1.06	 0.93;
	 92	 1	 14.471	 6.296	 0	 0	 1	 0.995	 0	 138	 3	 1.06	 0.93;
	 93	 1	 72.177	 21.044	 0	 0	 1	 0.995	 0	 138	 3	 1.06	 0.93;
	 94	 1	 0	 0	 0	 0	 1	 0.995	 0	 138	 3	 1.06	 0.93;
	 95	 2	 5.772	 1.232	 0	 0	 1	 0.995	 0	 138	 3	 1.06	 0.93;
	 96	 1	 28.687	 16.008	 0	 0	 1	 0.995	 0	 138	 3	 1.06	 0.93;
	 97	 1	 3.646	 0.308	 0	 0	 1	 0.995	 0	 138	 3	 1.06	 0.93;
	 98	 1	 2.434	 0.616	 0	 0	 1	 0.995	 0	 138	 3	 1.06	 0.93;
	 99	 1	 3.646	 0.616	 0	 0	 1	 0.995	 0	 138	 3	 1.06	 0.93;
	 100	 1	 2.126	 0.411	 0	 0	 1	 0.995	 0	 138	 3	 1.06	 0.93;
	 101	 1	 2.634	-8.716	 0	 0	 1	 0.995	 0	 138	 3	 1.06	 0.93;
	 102	 1	 1.212	 0.308	 0	 0	 1	 0.995	 0	 138	 3	 1.06	 0.93;
	 103	 1	 0.411	 0.103	 0	 0	 1	 0.995	 0	 138	 3	 1.06	 0.93;
	 104	 1	 83.704	 88.219	 0	 0	 1	 0.995	 0	 345	 5	 1.06	 0.93;
	 105	 1	 0	 0	 0	 0	 1	 0.995	 0	 500	 5	 1.06	 0.93;
	 106	 1	 0	 0	 0	-30.025	 1	 0.995	 0	 500	 5	 1.06	 0.93;
	 107	 1	 0	 0	 0	 0	 1	 0.995	 0	 500	 5	 1.06	 0.93;
	 108	 1	 0	 0	 0	 0	 1	 0.995	 0	 500	 5	 1.06	 0.93;
	 109	 1	 0	 0	 0	 0	 1	 0.995	 0	 500	 5	 1.06	 0.93;
	 110	 2	 0	 0	 0	 0	 1	 0.995	 0	 500	 5	 1.06	 0.93;
	 111	 1	 0	 0	 0	 0	 1	 0.995	 0	 500	 5	 1.06	 0.93;
	 112	 1	 215.876	 23.79	 0	 24.399	 1	 0.995	 0	 500	 5	 1.06	 0.93;
	 113	 1	 0	 0	 0	-71.188	 1	 0.995	 0	 345	 5	 1.06	 0.93;
	 114	 1	 0	 0	 0	 0	 1	 0.995	 0	 500	 5	 1.06	 0.93;
	 115	 1	 0	 0	 0	 0	 1	 0.995	 0	 500	 5	 1.06	 0.93;
	 116	 1	 86.886	 60.161	 0	 60.608	 1	 0.995	 0	 500	 5	 1.06	 0.93;
	 117	 1	 0	 0	 0	 71.9997426832	 1	 0.995	 0	 500	 5	 1.06	 0.93;
	 118	 1	 0	 0	 0	 0	 1	 0.995	 0	 500	 5	 1.06	 0.93;
	 119	 1	 11.298	 41.082	 0	 0	 1	 0.995	 0	 500	 5	 1.06	 0.93;
	 120	 1	 5.135	 10.27	 0	 0	 1	 0.995	 0	 500	 5	 1.06	 0.93;
	 121	 1	 7.117	 3.194	 0	 0	 1	 0.995	 0	 138	 5	 1.06	 0.93;
	 122	 2	 15.046	 1.027	 0	 0	 1	 0.995	 0	 138	 5	 1.06	 0.93;
	 123	 1	 8.36	 1.356	 0	 0	 1	 0.995	 0	 138	 5	 1.06	 0.93;
	 124	 1	 4.334	 1.027	 0	 0	 1	 0.995	 0	 138	 5	 1.06	 0.93;
	 125	 1	 11.873	 0.01	 0	-9.534	 1	 0.995	 0	 138	 5	 1.06	 0.93;
	 126	 1	 158.644	 75.017	 0	 0	 1	 0.995	 0	 138	 5	 1.06	 0.93;
	 127	 1	 68.848	 34.904	 0	 0	 1	 0.995	 0	 138	 5	 1.06	 0.93;
	 128	 1	 0	 0	 0	 53.9998048975	 1	 0.995	 0	 32	 5	 1.06	 0.93;
	 129	 1	 0	 0	 0	 11.017	 1	 0.995	 0	 138	 5	 1.06	 0.93;
	 130	 1	 36.687	 10.356	 0	 0	 1	 0.995	 0	 138	 5	 1.06	 0.93;
	 131	 1	 5.361	 2.167	 0	 0	 1	 0.995	 0	 138	 5	 1.06	 0.93;
	 132	 1	 2.681	 1.027	 0	 0	 1	 0.995	 0	 138	 5	 1.06	 0.93;
	 133	 1	 0.01	 0.01	 0	 0	 1	 0.995	 0	 138	 5	 1.06	 0.93;
	 134	 2	 0.01	 0.01	 0	 0	 1	 0.995	 0	 138	 5	 1.06	 0.93;
	 135	 1	 24.24	-0.701	 0	-5.842	 1	 0.995	 0	 138	 5	 1.06	 0.93;
	 136	 1	 17.234	 4.848	 0	 0	 1	 0.995	 0	 138	 5	 1.06	 0.93;
	 137	 1	 0	 0	 0	 0.000892479146111	 1	 0.995	 0	 16	 5	 1.06	 0.93;
	 138	 1	 11.143	 1.027	 0	 0	 1	 0.995	 0	 138	 5	 1.06	 0.93;
	 139	 1	 14.029	 2.681	 0	 12.518	 1	 0.995	 0	 138	 5	 1.06	 0.93;
	 140	 2	 15.067	 3.194	 0	 0	 1	 0.995	 0	 138	 5	 1.06	 0.93;
	 141	 1	 7.744	 1.027	 0	 0	 1	 0.995	 0	 138	 5	 1.06	 0.93;
	 142	 1	 5.885	 1.027	 0	 0	 1	 0.995	 0	 138	 5	 1.06	 0.93;
	 143	 1	 9.706	 2.681	 0	 0.00349581693089	 1	 0.995	 0	 138	 5	 1.06	 0.93;
	 144	 1	 4.334	 1.027	 0	 0	 1	 0.995	 0	 138	 5	 1.06	 0.93;
	 145	 1	 29.715	 13.322	 0	 0	 1	 0.995	 0	 138	 5	 1.06	 0.93;
	 146	 1	 23.735	 8.566	 0	 0	 1	 0.995	 0	 138	 5	 1.06	 0.93;
	 147	 1	 20.428	 7.015	 0	 0	 1	 0.995	 0	 138	 5	 1.06	 0.93;
	 148	 1	 8.566	 2.783	 0	 0	 1	 0.995	 0	 138	 5	 1.06	 0.93;
	 149	 1	 17.234	 6.501	 0	 0	 1	 0.995	 0	 138	 5	 1.06	 0.93;
	 150	 1	 15.067	 3.194	 0	 0	 1	 0.995	 0	 138	 5	 1.06	 0.93;
	 151	 1	 5.361	 0	 0	 0	 1	 0.995	 0	 138	 5	 1.06	 0.93;
	 152	 1	 7.528	 2.167	 0	 0	 1	 0.995	 0	 138	 5	 1.06	 0.93;
	 153	 1	 5.361	 0.514	 0	 0	 1	 0.995	 0	 138	 5	 1.06	 0.93;
	 154	 1	 0	 0	 0	-0.0237680023282	 1	 0.995	 0	 138	 5	 1.06	 0.93;
	 155	 1	 0	 0	 0	-6.9892635799	 1	 0.995	 0	 138	 5	 1.06	 0.93;
	 156	 1	 12.834	-0.061	 0	 0	 1	 0.995	 0	 138	 5	 1.06	 0.93;
	 157	 1	 22.104	 0.658	 0	 0	 1	 0.995	 0	 138	 5	 1.06	 0.93;
	 158	 1	 10.733	 1.027	 0	 0	 1	 0.995	 0	 138	 5	 1.06	 0.93;
	 159	 1	 8.566	 3.194	 0	 0	 1	 0.995	 0	 138	 5	 1.06	 0.93;
	 160	 1	 0	 0	 0	 0	 1	 0.995	 0	 138	 5	 1.06	 0.93;
	 161	 1	 15.067	 3.194	 0	 0	 1	 0.995	 0	 138	 5	 1.06	 0.93;
	 162	 1	 31.263	 4.334	 0	 0	 1	 0.995	 0	 138	 5	 1.06	 0.93;
	 163	 1	 19.401	 4.848	 0	 0	 1	 0.995	 0	 138	 5	 1.06	 0.93;
	 164	 2	 11.862	 1.027	 0	 0	 1	 0.995	 0	 138	 5	 1.06	 0.93;
	 165	 1	 18.261	 4.334	 0	 0	 1	 0.995	 0	 138	 5	 1.06	 0.93;
	 166	 1	 0	 0	 0	 0	 1	 0.995	 0	 138	 5	 1.06	 0.93;
	 167	 1	 0	 0	 0	-0.0224910764389	 1	 0.995	 0	 138	 5	 1.06	 0.93;
	 168	 1	 0	 0	 0	-7.22356036406	 1	 0.995	 0	 138	 5	 1.06	 0.93;
	 169	 1	 0	 0	 0	 0	 1	 0.995	 0	 500	 5	 1.06	 0.93;
	 170	 2	 0	 0	 0	 0	 1	 0.995	 0	 345	 6	 1.06	 0.93;
	 171	 1	 0	 0	 0	 0	 1	 0.995	 0	 345	 6	 1.06	 0.93;
	 172	 1	 7.446	 4.108	 0	 0	 1	 0.995	 0	 138	 6	 1.06	 0.93;
	 173	 1	 0	 0	 0	 0	 1	 0.995	 0	 138	 6	 1.06	 0.93;
	 174	 1	 3.543	 0.719	 0	 0	 1	 0.995	 0	 138	 6	 1.06	 0.93;
	 175	 1	 9.623	 2.444	 0	 0	 1	 0.995	 0	 138	 6	 1.06	 0.93;
	 176	 2	 1.017	 0.308	 0	 0	 1	 0.995	 0	 138	 6	 1.06	 0.93;
	 177	 2	 0	 0	 0	 0	 1	 0.995	 0	 138	 6	 1.06	 0.93;
	 178	 1	 34.649	 10.097	 0	 0	 1	 0.995	 0	 138	 6	 1.06	 0.93;
	 179	 1	 5.958	 5.608	 0	 19.281	 1	 0.995	 0	 138	 6	 1.06	 0.93;
	 180	 1	 0	 0	 0	 0	 1	 0.995	 0	 138	 6	 1.06	 0.93;
	 181	 1	 5.063	 1.438	 0	 0	 1	 0.995	 0	 138	 6	 1.06	 0.93;
	 182	 1	 13.68	 4.303	 0	 0	 1	 0.995	 0	 138	 6	 1.06	 0.93;
	 183	 1	 13.68	 4.303	 0	 0	 1	 0.995	 0	 138	 6	 1.06	 0.93;
	 184	 1	 12.16	 3.944	 0	 0	 1	 0.995	 0	 138	 6	 1.06	 0.93;
	 185	 1	 23.602	 7.189	 0	 0	 1	 0.995	 0	 138	 6	 1.06	 0.93;
	 186	 1	 10.64	 4.211	 0	 0	 1	 0.995	 0	 138	 6	 1.06	 0.93;
	 187	 1	 10.64	 4.211	 0	 0	 1	 0.995	 0	 138	 6	 1.06	 0.93;
	 188	 1	 19.247	 6.84	 0	 0	 1	 0.995	 0	 138	 6	 1.06	 0.93;
	 189	 1	 19.247	 6.84	 0	 0	 1	 0.995	 0	 138	 6	 1.06	 0.93;
	 190	 1	 8.103	 2.465	 0	 0	 1	 0.995	 0	 138	 6	 1.06	 0.93;
	 191	 1	 8.103	 2.465	 0	 0	 1	 0.995	 0	 138	 6	 1.06	 0.93;
	 192	 1	 32.323	 40.733	 0	 32.216	 1	 0.995	 0	 138	 6	 1.06	 0.93;
	 193	 1	 9.623	 2.927	 0	 0	 1	 0.995	 0	 138	 6	 1.06	 0.93;
	 194	 1	 8.103	 2.547	 0	 0	 1	 0.995	 0	 138	 6	 1.06	 0.93;
	 195	 1	 8.103	 2.547	 0	 0	 1	 0.995	 0	 138	 6	 1.06	 0.93;
	 196	 1	 21.28	 11.01	 0	 0	 1	 0.995	 0	 138	 6	 1.06	 0.93;
	 197	 1	 6.08	 1.664	 0	 0	 1	 0.995	 0	 138	 6	 1.06	 0.93;
	 198	 1	 6.08	 1.664	 0	 0	 1	 0.995	 0	 138	 6	 1.06	 0.93;
	 199	 1	 13.259	 6.481	 0	 0	 1	 0.995	 0	 138	 6	 1.06	 0.93;
	 200	 1	 0	 0	 0	 0	 1	 0.995	 0	 138	 6	 1.06	 0.93;
...
];

mpc_regionR4.gen = [
%	bus         Pg          Qg          Qmax        Qmin        Vg          mBase       status      Pmax        Pmin        Pc1         Pc2         Qc1min      Qc1max      Qc2min      Qc2max      ramp_agc    ramp_10     ramp_30     ramp_q      apf         
	 1	 264.158	 0	 183	-183	 0.995	 100	 1	 526.316	 2;
	 2	 150.864	-18.734	 66.11	-103.578	 0.995	 100	 1	 297.895	 3.833;
	 5	 65.658	 0	 43.92	-43.92	 0.995	 100	 1	 126.316	 5;
...